xflr5 v6.57

 Calculated polar for: QX0023

 1 1 Reynolds number fixed          Mach number fixed         

 xtrf =   1.000 (top)        1.000 (bottom)
 Mach =   0.000     Re =     0.420 e 6     Ncrit =   9.000

  alpha     CL        CD       CDp       Cm    Top Xtr Bot Xtr   Cpmin    Chinge    XCp    
 ------- -------- --------- --------- -------- ------- ------- -------- --------- ---------
 -10.000  -0.2030   0.08912   0.08611  -0.0850  0.8694  0.0404  -2.2655   0.0000   0.0000   0.0000  -0.2041
  -9.900  -0.1971   0.08869   0.08568  -0.0844  0.8678  0.0405  -2.1982   0.0000   0.0000   0.0000  -0.2142
  -9.800  -0.1917   0.08819   0.08517  -0.0841  0.8662  0.0407  -2.1407   0.0000   0.0000   0.0000  -0.2250
  -9.700  -0.1867   0.08761   0.08457  -0.0839  0.8649  0.0408  -2.0910   0.0000   0.0000   0.0000  -0.2361
  -9.600  -0.1821   0.08693   0.08388  -0.0839  0.8636  0.0410  -2.0489   0.0000   0.0000   0.0000  -0.2476
  -9.500  -0.1777   0.08612   0.08307  -0.0841  0.8617  0.0412  -2.0144   0.0000   0.0000   0.0000  -0.2609
  -9.400  -0.1738   0.08521   0.08216  -0.0844  0.8600  0.0414  -1.9916   0.0000   0.0000   0.0000  -0.2736
  -9.300  -0.1705   0.08420   0.08115  -0.0848  0.8584  0.0417  -1.9755   0.0000   0.0000   0.0000  -0.2857
  -9.200  -0.1677   0.08309   0.08003  -0.0853  0.8569  0.0421  -1.9666   0.0000   0.0000   0.0000  -0.2971
  -9.100  -0.1655   0.08186   0.07878  -0.0860  0.8556  0.0425  -1.9659   0.0000   0.0000   0.0000  -0.3077
  -9.000  -0.1639   0.08041   0.07734  -0.0870  0.8538  0.0430  -1.9756   0.0000   0.0000   0.0000  -0.3188
  -8.900  -0.1638   0.07858   0.07552  -0.0884  0.8518  0.0437  -2.0070   0.0000   0.0000   0.0000  -0.3274
  -8.700  -0.3279   0.02529   0.01991  -0.1343  0.8410  0.0307  -4.6839   0.0000   0.0000   0.0000  -0.1821
  -8.600  -0.3192   0.02467   0.01907  -0.1344  0.8397  0.0310  -4.6402   0.0000   0.0000   0.0000  -0.1938
  -8.500  -0.3114   0.02361   0.01789  -0.1345  0.8386  0.0312  -4.6004   0.0000   0.0000   0.0000  -0.2051
  -8.400  -0.3023   0.02294   0.01718  -0.1346  0.8375  0.0315  -4.5356   0.0000   0.0000   0.0000  -0.2188
  -8.300  -0.2926   0.02249   0.01672  -0.1347  0.8358  0.0318  -4.4625   0.0000   0.0000   0.0000  -0.2342
  -8.200  -0.2827   0.02210   0.01629  -0.1348  0.8343  0.0320  -4.3893   0.0000   0.0000   0.0000  -0.2510
  -8.100  -0.2727   0.02172   0.01587  -0.1348  0.8329  0.0323  -4.3169   0.0000   0.0000   0.0000  -0.2692
  -8.000  -0.2625   0.02137   0.01548  -0.1349  0.8316  0.0325  -4.2433   0.0000   0.0000   0.0000  -0.2891
  -7.900  -0.2523   0.02100   0.01506  -0.1349  0.8305  0.0328  -4.1719   0.0000   0.0000   0.0000  -0.3106
  -7.800  -0.2421   0.02062   0.01462  -0.1350  0.8294  0.0331  -4.1029   0.0000   0.0000   0.0000  -0.3341
  -7.700  -0.2318   0.02023   0.01415  -0.1350  0.8283  0.0334  -4.0396   0.0000   0.0000   0.0000  -0.3596
  -7.600  -0.2217   0.01984   0.01370  -0.1350  0.8266  0.0338  -3.9824   0.0000   0.0000   0.0000  -0.3874
  -7.500  -0.2114   0.01945   0.01322  -0.1351  0.8251  0.0342  -3.9260   0.0000   0.0000   0.0000  -0.4181
  -7.400  -0.2009   0.01907   0.01276  -0.1351  0.8238  0.0345  -3.8698   0.0000   0.0000   0.0000  -0.4523
  -7.300  -0.1904   0.01872   0.01231  -0.1351  0.8225  0.0349  -3.8129   0.0000   0.0000   0.0000  -0.4908
  -7.200  -0.1796   0.01845   0.01193  -0.1351  0.8214  0.0353  -3.7535   0.0000   0.0000   0.0000  -0.5348
  -7.100  -0.1691   0.01804   0.01144  -0.1351  0.8204  0.0357  -3.6959   0.0000   0.0000   0.0000  -0.5831
  -7.000  -0.1588   0.01760   0.01101  -0.1352  0.8194  0.0362  -3.6303   0.0000   0.0000   0.0000  -0.6368
  -6.900  -0.1483   0.01736   0.01079  -0.1352  0.8178  0.0366  -3.5591   0.0000   0.0000   0.0000  -0.6996
  -6.800  -0.1375   0.01717   0.01059  -0.1353  0.8163  0.0371  -3.4881   0.0000   0.0000   0.0000  -0.7736
  -6.700  -0.1266   0.01696   0.01037  -0.1353  0.8149  0.0376  -3.4196   0.0000   0.0000   0.0000  -0.8609
  -6.600  -0.1157   0.01675   0.01012  -0.1354  0.8137  0.0381  -3.3532   0.0000   0.0000   0.0000  -0.9650
  -6.500  -0.1048   0.01651   0.00984  -0.1354  0.8125  0.0387  -3.2892   0.0000   0.0000   0.0000  -1.0913
  -6.400  -0.0937   0.01628   0.00954  -0.1354  0.8115  0.0392  -3.2268   0.0000   0.0000   0.0000  -1.2484
  -6.300  -0.0826   0.01607   0.00925  -0.1354  0.8106  0.0397  -3.1702   0.0000   0.0000   0.0000  -1.4500
  -6.200  -0.0716   0.01590   0.00903  -0.1354  0.8091  0.0402  -3.1159   0.0000   0.0000   0.0000  -1.7107
  -6.100  -0.0612   0.01550   0.00864  -0.1354  0.8076  0.0407  -3.0646   0.0000   0.0000   0.0000  -2.0399
  -6.000  -0.0506   0.01524   0.00841  -0.1355  0.8061  0.0413  -3.0050   0.0000   0.0000   0.0000  -2.5228
  -5.900  -0.0396   0.01506   0.00823  -0.1355  0.8048  0.0419  -2.9437   0.0000   0.0000   0.0000  -3.2894
  -5.800  -0.0285   0.01489   0.00805  -0.1356  0.8037  0.0426  -2.8834   0.0000   0.0000   0.0000  -4.6655
  -5.700  -0.0173   0.01472   0.00785  -0.1356  0.8026  0.0433  -2.8246   0.0000   0.0000   0.0000  -7.8369
  -5.600  -0.0060   0.01457   0.00766  -0.1356  0.8017  0.0442  -2.7664   0.0000   0.0000   0.0000  -23.0392
  -5.500   0.0053   0.01446   0.00749  -0.1357  0.8006  0.0450  -2.7088   0.0000   0.0000   0.0000  26.5692
  -5.400   0.0160   0.01422   0.00725  -0.1357  0.7989  0.0458  -2.6542   0.0000   0.0000   0.0000   9.0164
  -5.300   0.0268   0.01402   0.00709  -0.1357  0.7974  0.0467  -2.5943   0.0000   0.0000   0.0000   5.4756
  -5.200   0.0379   0.01388   0.00696  -0.1358  0.7961  0.0477  -2.5336   0.0000   0.0000   0.0000   3.9412
  -5.100   0.0491   0.01375   0.00681  -0.1358  0.7948  0.0487  -2.4747   0.0000   0.0000   0.0000   3.0954
  -5.000   0.0605   0.01363   0.00665  -0.1359  0.7937  0.0498  -2.4176   0.0000   0.0000   0.0000   2.5605
  -4.800   0.0829   0.01326   0.00625  -0.1360  0.7918  0.0518  -2.3051   0.0000   0.0000   0.0000   1.9340
  -4.700   0.0939   0.01313   0.00614  -0.1360  0.7903  0.0529  -2.2471   0.0000   0.0000   0.0000   1.7364
  -4.600   0.1050   0.01302   0.00604  -0.1361  0.7887  0.0541  -2.1927   0.0000   0.0000   0.0000   1.5791
  -4.500   0.1163   0.01292   0.00592  -0.1361  0.7873  0.0556  -2.1420   0.0000   0.0000   0.0000   1.4498
  -4.400   0.1275   0.01277   0.00576  -0.1362  0.7860  0.0570  -2.0921   0.0000   0.0000   0.0000   1.3443
  -4.300   0.1387   0.01263   0.00564  -0.1363  0.7848  0.0585  -2.0391   0.0000   0.0000   0.0000   1.2555
  -4.200   0.1502   0.01253   0.00553  -0.1363  0.7837  0.0603  -1.9868   0.0000   0.0000   0.0000   1.1787
  -4.100   0.1618   0.01245   0.00540  -0.1364  0.7827  0.0621  -1.9360   0.0000   0.0000   0.0000   1.1118
  -4.000   0.1731   0.01228   0.00525  -0.1365  0.7817  0.0641  -1.8852   0.0000   0.0000   0.0000   1.0557
  -3.900   0.1841   0.01219   0.00518  -0.1365  0.7800  0.0662  -1.8350   0.0000   0.0000   0.0000   1.0072
  -3.800   0.1954   0.01211   0.00509  -0.1366  0.7785  0.0686  -1.7858   0.0000   0.0000   0.0000   0.9633
  -3.700   0.2066   0.01197   0.00498  -0.1367  0.7770  0.0713  -1.7353   0.0000   0.0000   0.0000   0.9246
  -3.600   0.2181   0.01189   0.00489  -0.1367  0.7757  0.0746  -1.6854   0.0000   0.0000   0.0000   0.8890
  -3.500   0.2295   0.01175   0.00478  -0.1368  0.7745  0.0781  -1.6354   0.0000   0.0000   0.0000   0.8573
  -3.400   0.2411   0.01165   0.00467  -0.1369  0.7735  0.0825  -1.5860   0.0000   0.0000   0.0000   0.8281
  -3.300   0.2527   0.01154   0.00456  -0.1370  0.7725  0.0878  -1.5363   0.0000   0.0000   0.0000   0.8016
  -3.200   0.2639   0.01143   0.00450  -0.1371  0.7710  0.0941  -1.4879   0.0000   0.0000   0.0000   0.7782
  -3.100   0.2750   0.01133   0.00444  -0.1372  0.7693  0.1020  -1.4400   0.0000   0.0000   0.0000   0.7568
  -3.000   0.2863   0.01122   0.00437  -0.1372  0.7678  0.1118  -1.3918   0.0000   0.0000   0.0000   0.7368
  -2.900   0.2976   0.01110   0.00430  -0.1373  0.7664  0.1234  -1.3433   0.0000   0.0000   0.0000   0.7183
  -2.800   0.3091   0.01100   0.00424  -0.1374  0.7651  0.1368  -1.2979   0.0000   0.0000   0.0000   0.7009
  -2.700   0.3207   0.01089   0.00418  -0.1376  0.7640  0.1511  -1.2530   0.0000   0.0000   0.0000   0.6848
  -2.600   0.3323   0.01080   0.00412  -0.1377  0.7630  0.1657  -1.2080   0.0000   0.0000   0.0000   0.6697
  -2.500   0.3438   0.01073   0.00409  -0.1378  0.7617  0.1804  -1.1637   0.0000   0.0000   0.0000   0.6558
  -2.400   0.3548   0.01066   0.00408  -0.1379  0.7599  0.1945  -1.1204   0.0000   0.0000   0.0000   0.6430
  -2.300   0.3661   0.01059   0.00405  -0.1379  0.7582  0.2088  -1.0769   0.0000   0.0000   0.0000   0.6309
  -2.100   0.3890   0.01043   0.00398  -0.1381  0.7554  0.2392  -0.9902   0.0000   0.0000   0.0000   0.6085
  -2.000   0.4006   0.01036   0.00394  -0.1383  0.7542  0.2556  -0.9470   0.0000   0.0000   0.0000   0.5982
  -1.900   0.4123   0.01028   0.00389  -0.1384  0.7531  0.2721  -0.9041   0.0000   0.0000   0.0000   0.5884
  -1.800   0.4237   0.01022   0.00387  -0.1385  0.7517  0.2899  -0.8627   0.0000   0.0000   0.0000   0.5793
  -1.700   0.4347   0.01014   0.00388  -0.1386  0.7498  0.3093  -0.8251   0.0000   0.0000   0.0000   0.5709
  -1.600   0.4459   0.01007   0.00387  -0.1386  0.7481  0.3309  -0.7874   0.0000   0.0000   0.0000   0.5628
  -1.500   0.4573   0.00998   0.00385  -0.1387  0.7465  0.3537  -0.7825   0.0000   0.0000   0.0000   0.5550
  -1.400   0.4687   0.00989   0.00383  -0.1388  0.7451  0.3785  -0.7897   0.0000   0.0000   0.0000   0.5475
  -1.300   0.4803   0.00979   0.00380  -0.1389  0.7439  0.4059  -0.7971   0.0000   0.0000   0.0000   0.5404
  -1.200   0.4919   0.00970   0.00378  -0.1391  0.7428  0.4358  -0.8046   0.0000   0.0000   0.0000   0.5336
  -1.000   0.5137   0.00953   0.00382  -0.1391  0.7391  0.4990  -0.8189   0.0000   0.0000   0.0000   0.5212
  -0.900   0.5248   0.00945   0.00383  -0.1391  0.7374  0.5321  -0.8265   0.0000   0.0000   0.0000   0.5153
  -0.800   0.5359   0.00937   0.00383  -0.1391  0.7358  0.5627  -0.8342   0.0000   0.0000   0.0000   0.5096
  -0.700   0.5472   0.00929   0.00383  -0.1391  0.7344  0.5924  -0.8421   0.0000   0.0000   0.0000   0.5041
  -0.600   0.5585   0.00922   0.00382  -0.1391  0.7332  0.6207  -0.8502   0.0000   0.0000   0.0000   0.4987
  -0.500   0.5695   0.00917   0.00384  -0.1390  0.7318  0.6490  -0.8582   0.0000   0.0000   0.0000   0.4936
  -0.400   0.5801   0.00914   0.00389  -0.1389  0.7297  0.6737  -0.8657   0.0000   0.0000   0.0000   0.4888
  -0.300   0.5908   0.00910   0.00391  -0.1388  0.7278  0.6953  -0.8734   0.0000   0.0000   0.0000   0.4840
  -0.200   0.6017   0.00906   0.00392  -0.1386  0.7262  0.7151  -0.8815   0.0000   0.0000   0.0000   0.4794
  -0.100   0.6127   0.00903   0.00391  -0.1385  0.7246  0.7333  -0.8898   0.0000   0.0000   0.0000   0.4749
   0.000   0.6237   0.00899   0.00390  -0.1384  0.7233  0.7500  -0.8983   0.0000   0.0000   0.0000   0.4706
   0.100   0.6348   0.00896   0.00389  -0.1383  0.7220  0.7670  -0.9070   0.0000   0.0000   0.0000   0.4664
   0.200   0.6449   0.00895   0.00393  -0.1380  0.7197  0.7827  -0.9150   0.0000   0.0000   0.0000   0.4624
   0.300   0.6551   0.00892   0.00395  -0.1378  0.7177  0.7979  -0.9233   0.0000   0.0000   0.0000   0.4585
   0.400   0.6655   0.00889   0.00396  -0.1375  0.7159  0.8135  -0.9319   0.0000   0.0000   0.0000   0.4547
   0.500   0.6758   0.00885   0.00394  -0.1373  0.7143  0.8289  -0.9405   0.0000   0.0000   0.0000   0.4509
   0.700   0.6961   0.00879   0.00392  -0.1366  0.7113  0.8600  -0.9577   0.0000   0.0000   0.0000   0.4438
   0.800   0.7049   0.00876   0.00395  -0.1360  0.7090  0.8768  -0.9655   0.0000   0.0000   0.0000   0.4403
   0.900   0.7138   0.00872   0.00395  -0.1354  0.7070  0.8956  -0.9738   0.0000   0.0000   0.0000   0.4369
   1.000   0.7231   0.00868   0.00393  -0.1348  0.7051  0.9164  -0.9825   0.0000   0.0000   0.0000   0.4336
   1.100   0.7342   0.00863   0.00389  -0.1346  0.7035  0.9402  -0.9924   0.0000   0.0000   0.0000   0.4303
   1.200   0.7502   0.00858   0.00382  -0.1355  0.7020  0.9672  -1.0052   0.0000   0.0000   0.0000   0.4275
   1.300   0.7658   0.00857   0.00381  -0.1366  0.6998  1.0000  -1.0179   0.0000   0.0000   0.0000   0.4250
   1.400   0.7771   0.00859   0.00383  -0.1366  0.6975  1.0000  -1.0280   0.0000   0.0000   0.0000   0.4224
   1.500   0.7887   0.00861   0.00383  -0.1368  0.6954  1.0000  -1.0383   0.0000   0.0000   0.0000   0.4199
   1.600   0.8005   0.00863   0.00381  -0.1369  0.6936  1.0000  -1.0491   0.0000   0.0000   0.0000   0.4174
   1.700   0.8124   0.00864   0.00379  -0.1371  0.6919  1.0000  -1.0601   0.0000   0.0000   0.0000   0.4149
   1.800   0.8236   0.00867   0.00381  -0.1371  0.6898  1.0000  -1.0709   0.0000   0.0000   0.0000   0.4125
   1.900   0.8347   0.00870   0.00383  -0.1372  0.6872  1.0000  -1.0818   0.0000   0.0000   0.0000   0.4102
   2.000   0.8461   0.00871   0.00384  -0.1372  0.6850  1.0000  -1.0930   0.0000   0.0000   0.0000   0.4080
   2.100   0.8577   0.00873   0.00383  -0.1373  0.6830  1.0000  -1.1045   0.0000   0.0000   0.0000   0.4058
   2.200   0.8695   0.00875   0.00381  -0.1375  0.6813  1.0000  -1.1164   0.0000   0.0000   0.0000   0.4036
   2.300   0.8804   0.00878   0.00385  -0.1375  0.6787  1.0000  -1.1277   0.0000   0.0000   0.0000   0.4015
   2.400   0.8915   0.00881   0.00387  -0.1375  0.6761  1.0000  -1.1390   0.0000   0.0000   0.0000   0.3995
   2.500   0.9028   0.00883   0.00388  -0.1375  0.6738  1.0000  -1.1508   0.0000   0.0000   0.0000   0.3975
   2.600   0.9143   0.00885   0.00387  -0.1376  0.6718  1.0000  -1.1629   0.0000   0.0000   0.0000   0.3955
   2.700   0.9258   0.00888   0.00388  -0.1377  0.6697  1.0000  -1.1753   0.0000   0.0000   0.0000   0.3936
   2.800   0.9365   0.00891   0.00392  -0.1376  0.6668  1.0000  -1.1873   0.0000   0.0000   0.0000   0.3917
   2.900   0.9476   0.00894   0.00394  -0.1377  0.6641  1.0000  -1.1999   0.0000   0.0000   0.0000   0.3899
   3.000   0.9589   0.00896   0.00395  -0.1377  0.6618  1.0000  -1.2127   0.0000   0.0000   0.0000   0.3881
   3.100   0.9705   0.00899   0.00394  -0.1378  0.6598  1.0000  -1.2258   0.0000   0.0000   0.0000   0.3863
   3.200   0.9810   0.00902   0.00399  -0.1377  0.6566  1.0000  -1.2382   0.0000   0.0000   0.0000   0.3846
   3.300   0.9919   0.00905   0.00403  -0.1377  0.6538  1.0000  -1.2512   0.0000   0.0000   0.0000   0.3829
   3.400   1.0031   0.00908   0.00404  -0.1377  0.6513  1.0000  -1.2644   0.0000   0.0000   0.0000   0.3812
   3.500   1.0145   0.00912   0.00404  -0.1378  0.6491  1.0000  -1.2789   0.0000   0.0000   0.0000   0.3796
   3.600   1.0250   0.00915   0.00410  -0.1377  0.6457  1.0000  -1.2928   0.0000   0.0000   0.0000   0.3780
   3.700   1.0358   0.00919   0.00413  -0.1376  0.6427  1.0000  -1.3070   0.0000   0.0000   0.0000   0.3764
   3.800   1.0469   0.00922   0.00414  -0.1376  0.6400  1.0000  -1.3219   0.0000   0.0000   0.0000   0.3749
   3.900   1.0578   0.00926   0.00417  -0.1376  0.6371  1.0000  -1.3367   0.0000   0.0000   0.0000   0.3734
   4.000   1.0683   0.00930   0.00422  -0.1375  0.6336  1.0000  -1.3512   0.0000   0.0000   0.0000   0.3719
   4.100   1.0791   0.00934   0.00425  -0.1375  0.6305  1.0000  -1.3664   0.0000   0.0000   0.0000   0.3704
   4.200   1.0903   0.00938   0.00426  -0.1375  0.6279  1.0000  -1.3830   0.0000   0.0000   0.0000   0.3690
   4.300   1.1005   0.00942   0.00433  -0.1374  0.6240  1.0000  -1.3988   0.0000   0.0000   0.0000   0.3676
   4.400   1.1111   0.00947   0.00436  -0.1373  0.6205  1.0000  -1.4151   0.0000   0.0000   0.0000   0.3662
   4.500   1.1220   0.00952   0.00438  -0.1372  0.6174  1.0000  -1.4319   0.0000   0.0000   0.0000   0.3648
   4.600   1.1322   0.00956   0.00445  -0.1371  0.6133  1.0000  -1.4484   0.0000   0.0000   0.0000   0.3635
   4.700   1.1426   0.00961   0.00449  -0.1370  0.6095  1.0000  -1.4652   0.0000   0.0000   0.0000   0.3621
   4.800   1.1533   0.00967   0.00452  -0.1369  0.6062  1.0000  -1.4822   0.0000   0.0000   0.0000   0.3608
   4.900   1.1634   0.00972   0.00459  -0.1367  0.6017  1.0000  -1.5001   0.0000   0.0000   0.0000   0.3595
   5.000   1.1737   0.00978   0.00463  -0.1366  0.5978  1.0000  -1.5187   0.0000   0.0000   0.0000   0.3582
   5.100   1.1840   0.00984   0.00468  -0.1365  0.5939  1.0000  -1.5374   0.0000   0.0000   0.0000   0.3570
   5.200   1.1941   0.00990   0.00475  -0.1363  0.5894  1.0000  -1.5562   0.0000   0.0000   0.0000   0.3557
   5.300   1.2043   0.00997   0.00479  -0.1362  0.5855  1.0000  -1.5755   0.0000   0.0000   0.0000   0.3545
   5.400   1.2142   0.01003   0.00487  -0.1360  0.5807  1.0000  -1.5946   0.0000   0.0000   0.0000   0.3533
   5.500   1.2242   0.01011   0.00493  -0.1358  0.5761  1.0000  -1.6152   0.0000   0.0000   0.0000   0.3521
   5.600   1.2340   0.01018   0.00500  -0.1356  0.5715  1.0000  -1.6366   0.0000   0.0000   0.0000   0.3509
   5.700   1.2438   0.01026   0.00507  -0.1354  0.5665  1.0000  -1.6580   0.0000   0.0000   0.0000   0.3497
   5.800   1.2534   0.01035   0.00514  -0.1351  0.5619  1.0000  -1.6808   0.0000   0.0000   0.0000   0.3485
   5.900   1.2630   0.01043   0.00522  -0.1349  0.5566  1.0000  -1.7057   0.0000   0.0000   0.0000   0.3474
   6.000   1.2725   0.01053   0.00529  -0.1346  0.5518  1.0000  -1.7305   0.0000   0.0000   0.0000   0.3462
   6.100   1.2819   0.01061   0.00539  -0.1343  0.5461  1.0000  -1.7564   0.0000   0.0000   0.0000   0.3451
   6.200   1.2910   0.01073   0.00547  -0.1340  0.5408  1.0000  -1.7850   0.0000   0.0000   0.0000   0.3439
   6.300   1.3002   0.01082   0.00557  -0.1337  0.5347  1.0000  -1.8146   0.0000   0.0000   0.0000   0.3428
   6.400   1.3090   0.01094   0.00566  -0.1333  0.5291  1.0000  -1.8439   0.0000   0.0000   0.0000   0.3417
   6.500   1.3179   0.01105   0.00577  -0.1330  0.5228  1.0000  -1.8733   0.0000   0.0000   0.0000   0.3406
   6.600   1.3265   0.01117   0.00587  -0.1326  0.5168  1.0000  -1.9039   0.0000   0.0000   0.0000   0.3395
   6.700   1.3350   0.01130   0.00599  -0.1321  0.5104  1.0000  -1.9343   0.0000   0.0000   0.0000   0.3384
   6.800   1.3434   0.01143   0.00610  -0.1317  0.5039  1.0000  -1.9648   0.0000   0.0000   0.0000   0.3373
   7.000   1.3593   0.01173   0.00635  -0.1307  0.4902  1.0000  -2.0275   0.0000   0.0000   0.0000   0.3351
   7.100   1.3669   0.01189   0.00649  -0.1301  0.4834  1.0000  -2.0586   0.0000   0.0000   0.0000   0.3340
   7.200   1.3742   0.01207   0.00664  -0.1295  0.4762  1.0000  -2.0898   0.0000   0.0000   0.0000   0.3329
   7.300   1.3816   0.01223   0.00678  -0.1289  0.4688  1.0000  -2.1223   0.0000   0.0000   0.0000   0.3318
   7.400   1.3884   0.01242   0.00694  -0.1282  0.4616  1.0000  -2.1540   0.0000   0.0000   0.0000   0.3307
   7.500   1.3948   0.01262   0.00711  -0.1275  0.4542  1.0000  -2.1851   0.0000   0.0000   0.0000   0.3296
   7.600   1.4016   0.01280   0.00728  -0.1268  0.4467  1.0000  -2.2168   0.0000   0.0000   0.0000   0.3285
   7.700   1.4072   0.01301   0.00745  -0.1259  0.4397  1.0000  -2.2468   0.0000   0.0000   0.0000   0.3273
   7.800   1.4122   0.01322   0.00764  -0.1249  0.4326  1.0000  -2.2756   0.0000   0.0000   0.0000   0.3261
   7.900   1.4178   0.01343   0.00782  -0.1240  0.4254  1.0000  -2.3058   0.0000   0.0000   0.0000   0.3250
   8.000   1.4229   0.01367   0.00803  -0.1230  0.4185  1.0000  -2.3349   0.0000   0.0000   0.0000   0.3239
   8.100   1.4280   0.01391   0.00825  -0.1221  0.4114  1.0000  -2.3642   0.0000   0.0000   0.0000   0.3228
   8.200   1.4334   0.01415   0.00848  -0.1212  0.4042  1.0000  -2.4042   0.0000   0.0000   0.0000   0.3217
   8.300   1.4380   0.01443   0.00873  -0.1203  0.3974  1.0000  -2.4446   0.0000   0.0000   0.0000   0.3206
   8.400   1.4431   0.01470   0.00898  -0.1194  0.3903  1.0000  -2.4861   0.0000   0.0000   0.0000   0.3195
   8.500   1.4482   0.01497   0.00923  -0.1186  0.3835  1.0000  -2.5281   0.0000   0.0000   0.0000   0.3185
   8.600   1.4525   0.01529   0.00952  -0.1176  0.3770  1.0000  -2.5682   0.0000   0.0000   0.0000   0.3174
   8.700   1.4579   0.01557   0.00978  -0.1169  0.3701  1.0000  -2.6110   0.0000   0.0000   0.0000   0.3164
   8.800   1.4627   0.01588   0.01008  -0.1160  0.3636  1.0000  -2.6527   0.0000   0.0000   0.0000   0.3154
   8.900   1.4670   0.01622   0.01039  -0.1151  0.3571  1.0000  -2.6934   0.0000   0.0000   0.0000   0.3144
   9.000   1.4722   0.01653   0.01069  -0.1144  0.3504  1.0000  -2.7364   0.0000   0.0000   0.0000   0.3135
   9.100   1.4764   0.01689   0.01102  -0.1135  0.3442  1.0000  -2.7771   0.0000   0.0000   0.0000   0.3125
   9.200   1.4811   0.01723   0.01135  -0.1127  0.3376  1.0000  -2.8193   0.0000   0.0000   0.0000   0.3116
   9.300   1.4857   0.01759   0.01169  -0.1120  0.3312  1.0000  -2.8614   0.0000   0.0000   0.0000   0.3106
   9.500   1.4943   0.01835   0.01242  -0.1104  0.3183  1.0000  -2.9445   0.0000   0.0000   0.0000   0.3088
   9.600   1.4984   0.01875   0.01280  -0.1096  0.3121  1.0000  -2.9857   0.0000   0.0000   0.0000   0.3079
   9.700   1.5022   0.01918   0.01320  -0.1088  0.3057  1.0000  -3.0265   0.0000   0.0000   0.0000   0.3070
   9.800   1.5067   0.01957   0.01359  -0.1080  0.2992  1.0000  -3.0689   0.0000   0.0000   0.0000   0.3061
   9.900   1.5101   0.02003   0.01402  -0.1072  0.2929  1.0000  -3.1089   0.0000   0.0000   0.0000   0.3052
  10.000   1.5139   0.02048   0.01445  -0.1064  0.2861  1.0000  -3.1498   0.0000   0.0000   0.0000   0.3043
  10.100   1.5177   0.02093   0.01488  -0.1056  0.2795  1.0000  -3.1911   0.0000   0.0000   0.0000   0.3035
  10.200   1.5208   0.02143   0.01535  -0.1048  0.2730  1.0000  -3.2305   0.0000   0.0000   0.0000   0.3026
  10.300   1.5241   0.02192   0.01582  -0.1040  0.2662  1.0000  -3.2706   0.0000   0.0000   0.0000   0.3017
  10.400   1.5277   0.02241   0.01629  -0.1033  0.2594  1.0000  -3.3115   0.0000   0.0000   0.0000   0.3009
  10.500   1.5305   0.02294   0.01680  -0.1025  0.2529  1.0000  -3.3506   0.0000   0.0000   0.0000   0.3001
  10.600   1.5332   0.02348   0.01731  -0.1016  0.2463  1.0000  -3.3893   0.0000   0.0000   0.0000   0.2992
  10.700   1.5366   0.02399   0.01781  -0.1009  0.2396  1.0000  -3.4301   0.0000   0.0000   0.0000   0.2984
  10.800   1.5395   0.02454   0.01834  -0.1001  0.2333  1.0000  -3.4695   0.0000   0.0000   0.0000   0.2976
  11.000   1.5451   0.02566   0.01941  -0.0986  0.2208  1.0000  -3.5485   0.0000   0.0000   0.0000   0.2960
  11.100   1.5478   0.02624   0.01997  -0.0979  0.2148  1.0000  -3.5878   0.0000   0.0000   0.0000   0.2952
  11.300   1.5529   0.02742   0.02111  -0.0964  0.2028  1.0000  -3.6657   0.0000   0.0000   0.0000   0.2936
  11.400   1.5553   0.02802   0.02170  -0.0956  0.1970  1.0000  -3.7044   0.0000   0.0000   0.0000   0.2929
  11.600   1.5598   0.02928   0.02292  -0.0941  0.1854  1.0000  -3.7810   0.0000   0.0000   0.0000   0.2914
  11.700   1.5619   0.02993   0.02355  -0.0934  0.1798  1.0000  -3.8190   0.0000   0.0000   0.0000   0.2906
  11.900   1.5659   0.03125   0.02483  -0.0919  0.1688  1.0000  -3.8947   0.0000   0.0000   0.0000   0.2891
  12.000   1.5677   0.03193   0.02550  -0.0912  0.1637  1.0000  -3.9318   0.0000   0.0000   0.0000   0.2884
  12.100   1.5691   0.03264   0.02619  -0.0904  0.1587  1.0000  -3.9680   0.0000   0.0000   0.0000   0.2877
  12.200   1.5713   0.03330   0.02684  -0.0898  0.1535  1.0000  -4.0067   0.0000   0.0000   0.0000   0.2870
  12.300   1.5727   0.03403   0.02756  -0.0891  0.1489  1.0000  -4.0429   0.0000   0.0000   0.0000   0.2863
  12.400   1.5746   0.03474   0.02825  -0.0884  0.1439  1.0000  -4.0806   0.0000   0.0000   0.0000   0.2856
  12.500   1.5764   0.03546   0.02896  -0.0877  0.1393  1.0000  -4.1182   0.0000   0.0000   0.0000   0.2849
  12.600   1.5775   0.03625   0.02974  -0.0870  0.1350  1.0000  -4.1534   0.0000   0.0000   0.0000   0.2842
  12.700   1.5796   0.03695   0.03044  -0.0864  0.1304  1.0000  -4.1922   0.0000   0.0000   0.0000   0.2836
  12.800   1.5808   0.03775   0.03122  -0.0858  0.1263  1.0000  -4.2276   0.0000   0.0000   0.0000   0.2829
  12.900   1.5824   0.03851   0.03198  -0.0852  0.1220  1.0000  -4.2647   0.0000   0.0000   0.0000   0.2823
  13.000   1.5838   0.03930   0.03276  -0.0846  0.1181  1.0000  -4.3010   0.0000   0.0000   0.0000   0.2816
  13.100   1.5849   0.04012   0.03358  -0.0840  0.1142  1.0000  -4.3364   0.0000   0.0000   0.0000   0.2810
  13.200   1.5864   0.04091   0.03437  -0.0834  0.1104  1.0000  -4.3734   0.0000   0.0000   0.0000   0.2804
  13.300   1.5872   0.04179   0.03523  -0.0828  0.1069  1.0000  -4.4084   0.0000   0.0000   0.0000   0.2798
  13.400   1.5888   0.04260   0.03604  -0.0823  0.1034  1.0000  -4.4482   0.0000   0.0000   0.0000   0.2792
  13.500   1.5894   0.04350   0.03694  -0.0817  0.1002  1.0000  -4.4844   0.0000   0.0000   0.0000   0.2786
  13.600   1.5910   0.04433   0.03777  -0.0812  0.0969  1.0000  -4.5241   0.0000   0.0000   0.0000   0.2780
  13.700   1.5916   0.04525   0.03868  -0.0806  0.0940  1.0000  -4.5606   0.0000   0.0000   0.0000   0.2774
  13.800   1.5929   0.04612   0.03956  -0.0801  0.0912  1.0000  -4.5993   0.0000   0.0000   0.0000   0.2768
  13.900   1.5938   0.04703   0.04048  -0.0796  0.0884  1.0000  -4.6365   0.0000   0.0000   0.0000   0.2763
  14.000   1.5943   0.04798   0.04142  -0.0791  0.0860  1.0000  -4.6725   0.0000   0.0000   0.0000   0.2757
  14.100   1.5957   0.04885   0.04231  -0.0787  0.0834  1.0000  -4.7116   0.0000   0.0000   0.0000   0.2752
  14.200   1.5958   0.04986   0.04332  -0.0782  0.0813  1.0000  -4.7461   0.0000   0.0000   0.0000   0.2747
  14.300   1.5970   0.05077   0.04425  -0.0778  0.0791  1.0000  -4.7845   0.0000   0.0000   0.0000   0.2742
  14.400   1.5979   0.05172   0.04521  -0.0774  0.0770  1.0000  -4.8219   0.0000   0.0000   0.0000   0.2736
  14.500   1.5976   0.05280   0.04629  -0.0769  0.0752  1.0000  -4.8550   0.0000   0.0000   0.0000   0.2732
  14.600   1.5989   0.05373   0.04724  -0.0765  0.0733  1.0000  -4.8935   0.0000   0.0000   0.0000   0.2727
  14.700   1.5998   0.05471   0.04824  -0.0762  0.0715  1.0000  -4.9308   0.0000   0.0000   0.0000   0.2722
  14.800   1.5995   0.05582   0.04935  -0.0758  0.0699  1.0000  -4.9636   0.0000   0.0000   0.0000   0.2717
  14.900   1.5999   0.05686   0.05041  -0.0754  0.0684  1.0000  -4.9990   0.0000   0.0000   0.0000   0.2713
  15.000   1.6011   0.05784   0.05141  -0.0751  0.0667  1.0000  -5.0371   0.0000   0.0000   0.0000   0.2708
  15.100   1.6011   0.05893   0.05252  -0.0748  0.0652  1.0000  -5.0712   0.0000   0.0000   0.0000   0.2704
  15.200   1.6002   0.06014   0.05374  -0.0744  0.0640  1.0000  -5.1013   0.0000   0.0000   0.0000   0.2699
  15.300   1.6010   0.06116   0.05479  -0.0741  0.0625  1.0000  -5.1381   0.0000   0.0000   0.0000   0.2695
  15.400   1.6017   0.06220   0.05586  -0.0738  0.0611  1.0000  -5.1744   0.0000   0.0000   0.0000   0.2691
  15.500   1.6014   0.06336   0.05704  -0.0736  0.0599  1.0000  -5.2068   0.0000   0.0000   0.0000   0.2687
  15.600   1.6001   0.06466   0.05834  -0.0733  0.0588  1.0000  -5.2351   0.0000   0.0000   0.0000   0.2683
  15.700   1.6003   0.06578   0.05949  -0.0730  0.0576  1.0000  -5.2689   0.0000   0.0000   0.0000   0.2679
  15.800   1.6009   0.06686   0.06061  -0.0728  0.0563  1.0000  -5.3048   0.0000   0.0000   0.0000   0.2676
  15.900   1.6007   0.06806   0.06183  -0.0726  0.0552  1.0000  -5.3411   0.0000   0.0000   0.0000   0.2672
  16.000   1.5994   0.06939   0.06317  -0.0724  0.0542  1.0000  -5.3763   0.0000   0.0000   0.0000   0.2669
  16.100   1.5971   0.07084   0.06463  -0.0722  0.0533  1.0000  -5.4069   0.0000   0.0000   0.0000   0.2666
  16.200   1.5983   0.07190   0.06574  -0.0720  0.0521  1.0000  -5.4532   0.0000   0.0000   0.0000   0.2662
  16.300   1.5983   0.07309   0.06696  -0.0719  0.0510  1.0000  -5.4949   0.0000   0.0000   0.0000   0.2659
  16.400   1.5974   0.07441   0.06831  -0.0718  0.0500  1.0000  -5.5317   0.0000   0.0000   0.0000   0.2656
  16.500   1.5953   0.07588   0.06978  -0.0717  0.0492  1.0000  -5.5630   0.0000   0.0000   0.0000   0.2653
  16.600   1.5926   0.07744   0.07135  -0.0715  0.0484  1.0000  -5.5905   0.0000   0.0000   0.0000   0.2651
  16.700   1.5932   0.07857   0.07254  -0.0715  0.0473  1.0000  -5.6342   0.0000   0.0000   0.0000   0.2648
  16.800   1.5930   0.07982   0.07384  -0.0714  0.0463  1.0000  -5.6738   0.0000   0.0000   0.0000   0.2645
  16.900   1.5916   0.08123   0.07527  -0.0713  0.0455  1.0000  -5.7079   0.0000   0.0000   0.0000   0.2643
  17.000   1.5893   0.08277   0.07682  -0.0713  0.0447  1.0000  -5.7375   0.0000   0.0000   0.0000   0.2641
  17.100   1.5855   0.08450   0.07857  -0.0713  0.0441  1.0000  -5.7593   0.0000   0.0000   0.0000   0.2640
  17.200   1.5850   0.08583   0.07995  -0.0713  0.0432  1.0000  -5.7965   0.0000   0.0000   0.0000   0.2637
  17.300   1.5845   0.08718   0.08133  -0.0713  0.0423  1.0000  -5.8337   0.0000   0.0000   0.0000   0.2635
  17.400   1.5834   0.08859   0.08278  -0.0714  0.0414  1.0000  -5.8687   0.0000   0.0000   0.0000   0.2633
  17.500   1.5813   0.09016   0.08438  -0.0714  0.0407  1.0000  -5.8981   0.0000   0.0000   0.0000   0.2632
  17.600   1.5782   0.09187   0.08609  -0.0716  0.0401  1.0000  -5.9224   0.0000   0.0000   0.0000   0.2631
  17.700   1.5737   0.09376   0.08800  -0.0717  0.0396  1.0000  -5.9388   0.0000   0.0000   0.0000   0.2631
  17.800   1.5733   0.09512   0.08941  -0.0718  0.0388  1.0000  -5.9759   0.0000   0.0000   0.0000   0.2629
  17.900   1.5723   0.09657   0.09090  -0.0719  0.0380  1.0000  -6.0097   0.0000   0.0000   0.0000   0.2628
  18.000   1.5709   0.09808   0.09245  -0.0721  0.0373  1.0000  -6.0415   0.0000   0.0000   0.0000   0.2627
  18.100   1.5687   0.09968   0.09408  -0.0723  0.0367  1.0000  -6.0700   0.0000   0.0000   0.0000   0.2626
  18.200   1.5658   0.10139   0.09581  -0.0725  0.0362  1.0000  -6.0940   0.0000   0.0000   0.0000   0.2626
  18.300   1.5620   0.10323   0.09767  -0.0728  0.0358  1.0000  -6.1126   0.0000   0.0000   0.0000   0.2626
  18.400   1.5574   0.10519   0.09963  -0.0731  0.0353  1.0000  -6.1259   0.0000   0.0000   0.0000   0.2627
  18.500   1.5568   0.10661   0.10111  -0.0733  0.0348  1.0000  -6.1603   0.0000   0.0000   0.0000   0.2626
  18.600   1.5555   0.10813   0.10269  -0.0736  0.0342  1.0000  -6.1910   0.0000   0.0000   0.0000   0.2626
  18.700   1.5538   0.10972   0.10431  -0.0738  0.0337  1.0000  -6.2197   0.0000   0.0000   0.0000   0.2626
  18.800   1.5519   0.11134   0.10597  -0.0742  0.0332  1.0000  -6.2469   0.0000   0.0000   0.0000   0.2626
  18.900   1.5498   0.11299   0.10765  -0.0745  0.0328  1.0000  -6.2736   0.0000   0.0000   0.0000   0.2626
  19.000   1.5474   0.11470   0.10938  -0.0749  0.0324  1.0000  -6.2981   0.0000   0.0000   0.0000   0.2627
  19.100   1.5447   0.11645   0.11115  -0.0753  0.0321  1.0000  -6.3204   0.0000   0.0000   0.0000   0.2628
  19.200   1.5414   0.11827   0.11299  -0.0758  0.0318  1.0000  -6.3391   0.0000   0.0000   0.0000   0.2629
  19.300   1.5377   0.12012   0.11484  -0.0762  0.0314  1.0000  -6.3549   0.0000   0.0000   0.0000   0.2631
  19.400   1.5366   0.12168   0.11645  -0.0766  0.0311  1.0000  -6.3841   0.0000   0.0000   0.0000   0.2631
  19.500   1.5357   0.12320   0.11802  -0.0770  0.0307  1.0000  -6.4139   0.0000   0.0000   0.0000   0.2631
  19.600   1.5344   0.12476   0.11963  -0.0774  0.0304  1.0000  -6.4424   0.0000   0.0000   0.0000   0.2632
  19.700   1.5331   0.12634   0.12124  -0.0779  0.0300  1.0000  -6.4703   0.0000   0.0000   0.0000   0.2633
  19.800   1.5318   0.12790   0.12284  -0.0784  0.0297  1.0000  -6.4987   0.0000   0.0000   0.0000   0.2634
  19.900   1.5304   0.12949   0.12446  -0.0789  0.0294  1.0000  -6.5260   0.0000   0.0000   0.0000   0.2635
  20.000   1.5290   0.13105   0.12605  -0.0794  0.0291  1.0000  -6.5543   0.0000   0.0000   0.0000   0.2636


