xflr5 v6.57

 Calculated polar for: QX0023

 1 1 Reynolds number fixed          Mach number fixed         

 xtrf =   1.000 (top)        1.000 (bottom)
 Mach =   0.000     Re =     0.200 e 6     Ncrit =   9.000

  alpha     CL        CD       CDp       Cm    Top Xtr Bot Xtr   Cpmin    Chinge    XCp    
 ------- -------- --------- --------- -------- ------- ------- -------- --------- ---------
 -10.000   0.0098   0.07409   0.07049  -0.1027  0.9109  0.0740  -1.1996   0.0000   0.0000   0.0000  11.1289
  -9.900  -0.0137   0.07144   0.06786  -0.1061  0.9094  0.0748  -1.3755   0.0000   0.0000   0.0000  -7.8474
  -9.500  -0.1121   0.09121   0.08745  -0.0994  0.9330  0.0696  -1.6407   0.0000   0.0000   0.0000  -0.6976
  -9.400  -0.1067   0.09046   0.08669  -0.0991  0.9313  0.0703  -1.6078   0.0000   0.0000   0.0000  -0.7415
  -9.300  -0.1031   0.08956   0.08579  -0.0993  0.9287  0.0712  -1.5925   0.0000   0.0000   0.0000  -0.7771
  -9.200  -0.1014   0.08844   0.08466  -0.0998  0.9263  0.0724  -1.5950   0.0000   0.0000   0.0000  -0.7993
  -9.100  -0.1248   0.08451   0.08076  -0.1073  0.9209  0.0748  -1.8452   0.0000   0.0000   0.0000  -0.6612
  -8.700  -0.0998   0.08153   0.07777  -0.1041  0.9140  0.0764  -1.6730   0.0000   0.0000   0.0000  -0.8552
  -8.600  -0.0957   0.08069   0.07692  -0.1040  0.9121  0.0770  -1.6515   0.0000   0.0000   0.0000  -0.9003
  -8.500  -0.0928   0.07971   0.07593  -0.1042  0.9103  0.0779  -1.6411   0.0000   0.0000   0.0000  -0.9369
  -8.400  -0.0913   0.07851   0.07474  -0.1050  0.9075  0.0790  -1.6460   0.0000   0.0000   0.0000  -0.9650
  -7.800  -0.1835   0.04236   0.03751  -0.1414  0.8832  0.0565  -3.0648   0.0000   0.0000   0.0000  -0.5534
  -7.700  -0.1751   0.04169   0.03688  -0.1413  0.8819  0.0567  -3.0053   0.0000   0.0000   0.0000  -0.5910
  -7.600  -0.1664   0.04117   0.03639  -0.1413  0.8808  0.0570  -2.9433   0.0000   0.0000   0.0000  -0.6340
  -7.500  -0.1582   0.04088   0.03612  -0.1411  0.8790  0.0574  -2.8802   0.0000   0.0000   0.0000  -0.6781
  -7.400  -0.1500   0.04082   0.03610  -0.1409  0.8769  0.0581  -2.8106   0.0000   0.0000   0.0000  -0.7268
  -7.300  -0.1348   0.04322   0.03870  -0.1399  0.8757  0.0639  -2.6153   0.0000   0.0000   0.0000  -0.8282
  -7.200  -0.1252   0.04332   0.03883  -0.1396  0.8743  0.0653  -2.5377   0.0000   0.0000   0.0000  -0.9073
  -7.100  -0.1170   0.04341   0.03890  -0.1397  0.8731  0.0702  -2.4596   0.0000   0.0000   0.0000  -0.9884
  -7.000  -0.1108   0.04313   0.03854  -0.1402  0.8714  0.0760  -2.4080   0.0000   0.0000   0.0000  -1.0620
  -6.900  -0.1037   0.04280   0.03823  -0.1400  0.8690  0.0766  -2.3578   0.0000   0.0000   0.0000  -1.1488
  -6.800  -0.0953   0.04255   0.03800  -0.1398  0.8673  0.0777  -2.3000   0.0000   0.0000   0.0000  -1.2693
  -6.700  -0.0892   0.04184   0.03717  -0.1404  0.8657  0.0832  -2.2692   0.0000   0.0000   0.0000  -1.3784
  -6.600  -0.0797   0.04160   0.03696  -0.1402  0.8646  0.0844  -2.2125   0.0000   0.0000   0.0000  -1.5679
  -6.500  -0.0972   0.02704   0.02011  -0.1422  0.8602  0.0555  -2.9502   0.0000   0.0000   0.0000  -1.2675
  -6.400  -0.0878   0.02636   0.01923  -0.1421  0.8586  0.0559  -2.9250   0.0000   0.0000   0.0000  -1.4270
  -6.300  -0.0777   0.02574   0.01839  -0.1420  0.8574  0.0563  -2.8955   0.0000   0.0000   0.0000  -1.6446
  -6.200  -0.0672   0.02512   0.01779  -0.1421  0.8564  0.0570  -2.8390   0.0000   0.0000   0.0000  -1.9397
  -6.100  -0.0562   0.02478   0.01749  -0.1422  0.8555  0.0578  -2.7742   0.0000   0.0000   0.0000  -2.3702
  -6.000  -0.0481   0.02463   0.01735  -0.1419  0.8529  0.0587  -2.7229   0.0000   0.0000   0.0000  -2.8020
  -5.900  -0.0386   0.02435   0.01700  -0.1417  0.8510  0.0596  -2.6762   0.0000   0.0000   0.0000  -3.5468
  -5.800  -0.0281   0.02395   0.01649  -0.1417  0.8496  0.0606  -2.6393   0.0000   0.0000   0.0000  -4.9540
  -5.700  -0.0171   0.02352   0.01589  -0.1416  0.8485  0.0616  -2.6062   0.0000   0.0000   0.0000  -8.3062
  -5.600  -0.0059   0.02306   0.01529  -0.1416  0.8476  0.0624  -2.5707   0.0000   0.0000   0.0000  -24.6775
  -5.500   0.0053   0.02260   0.01485  -0.1417  0.8468  0.0632  -2.5198   0.0000   0.0000   0.0000  27.9075
  -5.400   0.0130   0.02246   0.01474  -0.1413  0.8439  0.0640  -2.4776   0.0000   0.0000   0.0000  11.4437
  -5.300   0.0229   0.02222   0.01449  -0.1412  0.8421  0.0650  -2.4315   0.0000   0.0000   0.0000   6.5913
  -5.200   0.0338   0.02193   0.01416  -0.1411  0.8408  0.0661  -2.3861   0.0000   0.0000   0.0000   4.5521
  -5.100   0.0452   0.02165   0.01378  -0.1411  0.8397  0.0675  -2.3420   0.0000   0.0000   0.0000   3.4648
  -5.000   0.0566   0.02131   0.01338  -0.1411  0.8388  0.0690  -2.2956   0.0000   0.0000   0.0000   2.8144
  -4.900   0.0680   0.02102   0.01313  -0.1412  0.8380  0.0704  -2.2396   0.0000   0.0000   0.0000   2.3851
  -4.800   0.0758   0.02099   0.01311  -0.1408  0.8352  0.0718  -2.1965   0.0000   0.0000   0.0000   2.1587
  -4.700   0.0859   0.02082   0.01290  -0.1407  0.8333  0.0735  -2.1519   0.0000   0.0000   0.0000   1.9327
  -4.600   0.0969   0.02059   0.01259  -0.1406  0.8320  0.0751  -2.1081   0.0000   0.0000   0.0000   1.7393
  -4.500   0.1079   0.02026   0.01234  -0.1406  0.8309  0.0766  -2.0560   0.0000   0.0000   0.0000   1.5865
  -4.400   0.1195   0.02003   0.01211  -0.1406  0.8300  0.0785  -2.0077   0.0000   0.0000   0.0000   1.4569
  -4.300   0.1313   0.01983   0.01184  -0.1407  0.8291  0.0809  -1.9646   0.0000   0.0000   0.0000   1.3475
  -4.200   0.1393   0.01975   0.01180  -0.1403  0.8265  0.0828  -1.9269   0.0000   0.0000   0.0000   1.2816
  -4.100   0.1489   0.01964   0.01174  -0.1402  0.8245  0.0851  -1.8833   0.0000   0.0000   0.0000   1.2136
  -4.000   0.1600   0.01948   0.01153  -0.1401  0.8231  0.0879  -1.8413   0.0000   0.0000   0.0000   1.1462
  -3.900   0.1712   0.01923   0.01132  -0.1401  0.8220  0.0905  -1.7964   0.0000   0.0000   0.0000   1.0872
  -3.800   0.1829   0.01902   0.01112  -0.1402  0.8210  0.0937  -1.7505   0.0000   0.0000   0.0000   1.0335
  -3.700   0.1946   0.01879   0.01089  -0.1403  0.8202  0.0974  -1.7054   0.0000   0.0000   0.0000   0.9861
  -3.600   0.2035   0.01877   0.01090  -0.1400  0.8179  0.1012  -1.6648   0.0000   0.0000   0.0000   0.9525
  -3.500   0.2127   0.01869   0.01086  -0.1398  0.8156  0.1053  -1.6251   0.0000   0.0000   0.0000   0.9208
  -3.400   0.2236   0.01856   0.01072  -0.1398  0.8141  0.1108  -1.5818   0.0000   0.0000   0.0000   0.8874
  -3.300   0.2350   0.01834   0.01056  -0.1398  0.8129  0.1166  -1.5365   0.0000   0.0000   0.0000   0.8565
  -3.200   0.2468   0.01813   0.01038  -0.1399  0.8120  0.1243  -1.4909   0.0000   0.0000   0.0000   0.8275
  -3.100   0.2587   0.01792   0.01021  -0.1401  0.8111  0.1340  -1.4451   0.0000   0.0000   0.0000   0.8010
  -3.000   0.2691   0.01781   0.01014  -0.1400  0.8095  0.1454  -1.4028   0.0000   0.0000   0.0000   0.7792
  -2.900   0.2772   0.01781   0.01024  -0.1397  0.8066  0.1568  -1.3647   0.0000   0.0000   0.0000   0.7624
  -2.800   0.2881   0.01768   0.01016  -0.1397  0.8050  0.1731  -1.3231   0.0000   0.0000   0.0000   0.7428
  -2.700   0.2996   0.01751   0.01006  -0.1398  0.8038  0.1914  -1.2810   0.0000   0.0000   0.0000   0.7240
  -2.600   0.3115   0.01732   0.00994  -0.1400  0.8028  0.2111  -1.2377   0.0000   0.0000   0.0000   0.7061
  -2.500   0.3235   0.01714   0.00983  -0.1402  0.8019  0.2317  -1.1937   0.0000   0.0000   0.0000   0.6893
  -2.400   0.3357   0.01696   0.00972  -0.1403  0.8011  0.2532  -1.1492   0.0000   0.0000   0.0000   0.6736
  -2.300   0.3425   0.01712   0.00996  -0.1399  0.7975  0.2704  -1.1159   0.0000   0.0000   0.0000   0.6637
  -2.200   0.3532   0.01703   0.00995  -0.1399  0.7958  0.2918  -1.0748   0.0000   0.0000   0.0000   0.6510
  -2.100   0.3646   0.01690   0.00989  -0.1400  0.7945  0.3155  -1.0321   0.0000   0.0000   0.0000   0.6383
  -2.000   0.3765   0.01674   0.00981  -0.1401  0.7935  0.3414  -0.9888   0.0000   0.0000   0.0000   0.6262
  -1.900   0.3884   0.01656   0.00972  -0.1402  0.7926  0.3695  -0.9457   0.0000   0.0000   0.0000   0.6147
  -1.800   0.4005   0.01638   0.00964  -0.1403  0.7918  0.4009  -0.9026   0.0000   0.0000   0.0000   0.6037
  -1.700   0.4075   0.01651   0.00989  -0.1399  0.7883  0.4287  -0.8714   0.0000   0.0000   0.0000   0.5963
  -1.600   0.4177   0.01642   0.00993  -0.1398  0.7865  0.4628  -0.8356   0.0000   0.0000   0.0000   0.5874
  -1.500   0.4287   0.01628   0.00991  -0.1397  0.7851  0.5010  -0.7983   0.0000   0.0000   0.0000   0.5783
  -1.400   0.4400   0.01612   0.00987  -0.1396  0.7840  0.5408  -0.7608   0.0000   0.0000   0.0000   0.5694
  -1.300   0.4513   0.01596   0.00983  -0.1394  0.7831  0.5789  -0.7661   0.0000   0.0000   0.0000   0.5609
  -1.200   0.4626   0.01581   0.00978  -0.1392  0.7822  0.6150  -0.7739   0.0000   0.0000   0.0000   0.5526
  -1.100   0.4690   0.01597   0.01006  -0.1385  0.7788  0.6453  -0.7782   0.0000   0.0000   0.0000   0.5467
  -1.000   0.4783   0.01597   0.01013  -0.1380  0.7768  0.6765  -0.7847   0.0000   0.0000   0.0000   0.5398
  -0.900   0.4885   0.01589   0.01011  -0.1376  0.7754  0.7050  -0.7920   0.0000   0.0000   0.0000   0.5326
  -0.800   0.4990   0.01579   0.01006  -0.1372  0.7743  0.7311  -0.7997   0.0000   0.0000   0.0000   0.5257
  -0.700   0.5095   0.01568   0.01000  -0.1367  0.7733  0.7552  -0.8075   0.0000   0.0000   0.0000   0.5189
  -0.600   0.5200   0.01557   0.00991  -0.1362  0.7725  0.7786  -0.8155   0.0000   0.0000   0.0000   0.5123
  -0.500   0.5250   0.01577   0.01019  -0.1351  0.7688  0.7979  -0.8192   0.0000   0.0000   0.0000   0.5076
  -0.400   0.5330   0.01575   0.01022  -0.1343  0.7668  0.8189  -0.8255   0.0000   0.0000   0.0000   0.5019
  -0.300   0.5418   0.01566   0.01016  -0.1335  0.7654  0.8405  -0.8326   0.0000   0.0000   0.0000   0.4961
  -0.200   0.5506   0.01555   0.01007  -0.1326  0.7643  0.8620  -0.8398   0.0000   0.0000   0.0000   0.4904
  -0.100   0.5599   0.01541   0.00994  -0.1318  0.7633  0.8849  -0.8475   0.0000   0.0000   0.0000   0.4847
   0.000   0.5706   0.01527   0.00980  -0.1312  0.7625  0.9103  -0.8563   0.0000   0.0000   0.0000   0.4791
   0.100   0.5789   0.01546   0.01004  -0.1308  0.7586  0.9403  -0.8623   0.0000   0.0000   0.0000   0.4750
   0.200   0.5990   0.01537   0.00994  -0.1325  0.7570  0.9804  -0.8759   0.0000   0.0000   0.0000   0.4701
   0.300   0.6138   0.01531   0.00983  -0.1333  0.7556  1.0000  -0.8868   0.0000   0.0000   0.0000   0.4658
   0.400   0.6270   0.01526   0.00972  -0.1337  0.7544  1.0000  -0.8969   0.0000   0.0000   0.0000   0.4617
   0.500   0.6405   0.01519   0.00959  -0.1341  0.7534  1.0000  -0.9073   0.0000   0.0000   0.0000   0.4576
   0.600   0.6541   0.01511   0.00946  -0.1345  0.7525  1.0000  -0.9180   0.0000   0.0000   0.0000   0.4537
   0.700   0.6605   0.01540   0.00975  -0.1340  0.7484  1.0000  -0.9234   0.0000   0.0000   0.0000   0.4508
   0.800   0.6722   0.01540   0.00972  -0.1341  0.7465  1.0000  -0.9330   0.0000   0.0000   0.0000   0.4474
   0.900   0.6849   0.01535   0.00963  -0.1344  0.7451  1.0000  -0.9435   0.0000   0.0000   0.0000   0.4439
   1.000   0.6981   0.01528   0.00951  -0.1347  0.7439  1.0000  -0.9546   0.0000   0.0000   0.0000   0.4404
   1.100   0.7115   0.01520   0.00938  -0.1350  0.7429  1.0000  -0.9659   0.0000   0.0000   0.0000   0.4371
   1.200   0.7199   0.01538   0.00956  -0.1347  0.7398  1.0000  -0.9736   0.0000   0.0000   0.0000   0.4343
   1.300   0.7303   0.01544   0.00960  -0.1346  0.7373  1.0000  -0.9829   0.0000   0.0000   0.0000   0.4314
   1.400   0.7425   0.01541   0.00954  -0.1348  0.7356  1.0000  -0.9936   0.0000   0.0000   0.0000   0.4284
   1.500   0.7554   0.01534   0.00943  -0.1350  0.7343  1.0000  -1.0050   0.0000   0.0000   0.0000   0.4255
   1.600   0.7687   0.01525   0.00930  -0.1353  0.7332  1.0000  -1.0169   0.0000   0.0000   0.0000   0.4226
   1.700   0.7799   0.01528   0.00931  -0.1353  0.7312  1.0000  -1.0273   0.0000   0.0000   0.0000   0.4200
   1.800   0.7882   0.01544   0.00948  -0.1350  0.7278  1.0000  -1.0357   0.0000   0.0000   0.0000   0.4176
   1.900   0.8000   0.01542   0.00943  -0.1351  0.7259  1.0000  -1.0470   0.0000   0.0000   0.0000   0.4150
   2.000   0.8128   0.01535   0.00933  -0.1353  0.7244  1.0000  -1.0593   0.0000   0.0000   0.0000   0.4125
   2.100   0.8261   0.01525   0.00920  -0.1355  0.7232  1.0000  -1.0720   0.0000   0.0000   0.0000   0.4100
   2.200   0.8388   0.01520   0.00911  -0.1357  0.7218  1.0000  -1.0844   0.0000   0.0000   0.0000   0.4076
   2.300   0.8458   0.01541   0.00935  -0.1352  0.7178  1.0000  -1.0925   0.0000   0.0000   0.0000   0.4055
   2.400   0.8575   0.01539   0.00931  -0.1352  0.7157  1.0000  -1.1043   0.0000   0.0000   0.0000   0.4032
   2.500   0.8702   0.01532   0.00921  -0.1354  0.7141  1.0000  -1.1171   0.0000   0.0000   0.0000   0.4010
   2.600   0.8836   0.01522   0.00908  -0.1357  0.7129  1.0000  -1.1306   0.0000   0.0000   0.0000   0.3988
   2.700   0.8940   0.01527   0.00912  -0.1356  0.7104  1.0000  -1.1419   0.0000   0.0000   0.0000   0.3968
   2.800   0.9030   0.01537   0.00924  -0.1353  0.7071  1.0000  -1.1523   0.0000   0.0000   0.0000   0.3948
   2.900   0.9149   0.01533   0.00918  -0.1354  0.7050  1.0000  -1.1654   0.0000   0.0000   0.0000   0.3928
   3.000   0.9279   0.01524   0.00906  -0.1356  0.7034  1.0000  -1.1795   0.0000   0.0000   0.0000   0.3908
   3.100   0.9414   0.01514   0.00892  -0.1359  0.7021  1.0000  -1.1941   0.0000   0.0000   0.0000   0.3889
   3.200   0.9492   0.01529   0.00910  -0.1354  0.6983  1.0000  -1.2041   0.0000   0.0000   0.0000   0.3871
   3.300   0.9601   0.01530   0.00911  -0.1353  0.6957  1.0000  -1.2168   0.0000   0.0000   0.0000   0.3853
   3.400   0.9725   0.01523   0.00902  -0.1355  0.6937  1.0000  -1.2310   0.0000   0.0000   0.0000   0.3835
   3.500   0.9858   0.01513   0.00889  -0.1357  0.6922  1.0000  -1.2464   0.0000   0.0000   0.0000   0.3817
   3.600   0.9956   0.01520   0.00896  -0.1355  0.6892  1.0000  -1.2596   0.0000   0.0000   0.0000   0.3800
   3.700   1.0052   0.01525   0.00903  -0.1353  0.6859  1.0000  -1.2727   0.0000   0.0000   0.0000   0.3783
   3.800   1.0173   0.01520   0.00896  -0.1353  0.6837  1.0000  -1.2879   0.0000   0.0000   0.0000   0.3767
   3.900   1.0305   0.01510   0.00883  -0.1356  0.6819  1.0000  -1.3048   0.0000   0.0000   0.0000   0.3751
   4.000   1.0407   0.01514   0.00887  -0.1354  0.6789  1.0000  -1.3189   0.0000   0.0000   0.0000   0.3735
   4.100   1.0500   0.01520   0.00895  -0.1351  0.6755  1.0000  -1.3323   0.0000   0.0000   0.0000   0.3719
   4.200   1.0621   0.01514   0.00889  -0.1352  0.6731  1.0000  -1.3488   0.0000   0.0000   0.0000   0.3704
   4.300   1.0753   0.01505   0.00876  -0.1354  0.6711  1.0000  -1.3673   0.0000   0.0000   0.0000   0.3689
   4.400   1.0842   0.01513   0.00887  -0.1351  0.6675  1.0000  -1.3817   0.0000   0.0000   0.0000   0.3674
   4.500   1.0944   0.01515   0.00889  -0.1349  0.6642  1.0000  -1.3976   0.0000   0.0000   0.0000   0.3660
   4.600   1.1067   0.01509   0.00880  -0.1350  0.6618  1.0000  -1.4158   0.0000   0.0000   0.0000   0.3646
   4.700   1.1200   0.01500   0.00868  -0.1353  0.6598  1.0000  -1.4353   0.0000   0.0000   0.0000   0.3632
   4.800   1.1271   0.01513   0.00886  -0.1346  0.6551  1.0000  -1.4487   0.0000   0.0000   0.0000   0.3617
   4.900   1.1385   0.01510   0.00882  -0.1346  0.6521  1.0000  -1.4667   0.0000   0.0000   0.0000   0.3604
   5.000   1.1516   0.01502   0.00871  -0.1348  0.6498  1.0000  -1.4875   0.0000   0.0000   0.0000   0.3591
   5.100   1.1597   0.01511   0.00884  -0.1344  0.6455  1.0000  -1.5038   0.0000   0.0000   0.0000   0.3577
   5.200   1.1703   0.01511   0.00884  -0.1342  0.6420  1.0000  -1.5227   0.0000   0.0000   0.0000   0.3564
   5.300   1.1830   0.01504   0.00873  -0.1344  0.6393  1.0000  -1.5444   0.0000   0.0000   0.0000   0.3552
   5.400   1.1914   0.01512   0.00885  -0.1339  0.6349  1.0000  -1.5617   0.0000   0.0000   0.0000   0.3538
   5.500   1.2018   0.01512   0.00885  -0.1337  0.6311  1.0000  -1.5813   0.0000   0.0000   0.0000   0.3526
   5.600   1.2146   0.01505   0.00874  -0.1339  0.6283  1.0000  -1.6054   0.0000   0.0000   0.0000   0.3514
   5.700   1.2221   0.01515   0.00890  -0.1333  0.6233  1.0000  -1.6240   0.0000   0.0000   0.0000   0.3501
   5.800   1.2329   0.01514   0.00888  -0.1332  0.6195  1.0000  -1.6469   0.0000   0.0000   0.0000   0.3489
   5.900   1.2439   0.01514   0.00886  -0.1331  0.6159  1.0000  -1.6714   0.0000   0.0000   0.0000   0.3477
   6.000   1.2522   0.01522   0.00896  -0.1326  0.6109  1.0000  -1.6946   0.0000   0.0000   0.0000   0.3465
   6.100   1.2639   0.01519   0.00891  -0.1326  0.6073  1.0000  -1.7225   0.0000   0.0000   0.0000   0.3454
   6.200   1.2721   0.01528   0.00902  -0.1321  0.6023  1.0000  -1.7468   0.0000   0.0000   0.0000   0.3442
   6.300   1.2822   0.01530   0.00903  -0.1319  0.5979  1.0000  -1.7761   0.0000   0.0000   0.0000   0.3430
   6.400   1.2920   0.01534   0.00907  -0.1316  0.5934  1.0000  -1.8066   0.0000   0.0000   0.0000   0.3419
   6.500   1.3007   0.01540   0.00916  -0.1312  0.5882  1.0000  -1.8356   0.0000   0.0000   0.0000   0.3407
   6.600   1.3116   0.01542   0.00914  -0.1311  0.5840  1.0000  -1.8682   0.0000   0.0000   0.0000   0.3396
   6.700   1.3191   0.01552   0.00928  -0.1305  0.5782  1.0000  -1.8962   0.0000   0.0000   0.0000   0.3385
   6.800   1.3302   0.01554   0.00925  -0.1304  0.5740  1.0000  -1.9310   0.0000   0.0000   0.0000   0.3374
   6.900   1.3371   0.01566   0.00941  -0.1297  0.5678  1.0000  -1.9589   0.0000   0.0000   0.0000   0.3362
   7.000   1.3477   0.01569   0.00940  -0.1296  0.5632  1.0000  -1.9933   0.0000   0.0000   0.0000   0.3352
   7.100   1.3545   0.01582   0.00957  -0.1288  0.5568  1.0000  -2.0227   0.0000   0.0000   0.0000   0.3340
   7.200   1.3646   0.01588   0.00958  -0.1286  0.5518  1.0000  -2.0582   0.0000   0.0000   0.0000   0.3330
   7.300   1.3713   0.01601   0.00975  -0.1279  0.5452  1.0000  -2.0877   0.0000   0.0000   0.0000   0.3319
   7.400   1.3804   0.01610   0.00981  -0.1275  0.5397  1.0000  -2.1215   0.0000   0.0000   0.0000   0.3308
   7.500   1.3875   0.01623   0.00995  -0.1268  0.5332  1.0000  -2.1537   0.0000   0.0000   0.0000   0.3297
   7.600   1.3954   0.01635   0.01006  -0.1263  0.5271  1.0000  -2.1873   0.0000   0.0000   0.0000   0.3286
   7.700   1.4031   0.01648   0.01016  -0.1257  0.5208  1.0000  -2.2209   0.0000   0.0000   0.0000   0.3276
   7.800   1.4098   0.01663   0.01032  -0.1249  0.5140  1.0000  -2.2527   0.0000   0.0000   0.0000   0.3265
   7.900   1.4178   0.01676   0.01041  -0.1244  0.5080  1.0000  -2.2871   0.0000   0.0000   0.0000   0.3254
   8.000   1.4236   0.01694   0.01060  -0.1235  0.5007  1.0000  -2.3175   0.0000   0.0000   0.0000   0.3243
   8.100   1.4301   0.01711   0.01075  -0.1228  0.4939  1.0000  -2.3494   0.0000   0.0000   0.0000   0.3232
   8.200   1.4366   0.01728   0.01090  -0.1220  0.4872  1.0000  -2.3856   0.0000   0.0000   0.0000   0.3221
   8.300   1.4418   0.01748   0.01110  -0.1211  0.4799  1.0000  -2.4249   0.0000   0.0000   0.0000   0.3210
   8.400   1.4475   0.01768   0.01127  -0.1202  0.4731  1.0000  -2.4657   0.0000   0.0000   0.0000   0.3199
   8.500   1.4521   0.01789   0.01146  -0.1191  0.4662  1.0000  -2.5054   0.0000   0.0000   0.0000   0.3187
   8.600   1.4561   0.01811   0.01168  -0.1179  0.4592  1.0000  -2.5445   0.0000   0.0000   0.0000   0.3175
   8.700   1.4609   0.01835   0.01187  -0.1169  0.4526  1.0000  -2.5859   0.0000   0.0000   0.0000   0.3164
   8.800   1.4646   0.01861   0.01213  -0.1158  0.4454  1.0000  -2.6246   0.0000   0.0000   0.0000   0.3153
   8.900   1.4686   0.01888   0.01238  -0.1147  0.4385  1.0000  -2.6643   0.0000   0.0000   0.0000   0.3142
   9.000   1.4728   0.01916   0.01263  -0.1137  0.4319  1.0000  -2.7048   0.0000   0.0000   0.0000   0.3131
   9.100   1.4762   0.01947   0.01294  -0.1126  0.4247  1.0000  -2.7429   0.0000   0.0000   0.0000   0.3120
   9.200   1.4799   0.01978   0.01323  -0.1115  0.4181  1.0000  -2.7823   0.0000   0.0000   0.0000   0.3109
   9.300   1.4834   0.02011   0.01354  -0.1105  0.4113  1.0000  -2.8212   0.0000   0.0000   0.0000   0.3098
   9.400   1.4866   0.02045   0.01388  -0.1094  0.4043  1.0000  -2.8595   0.0000   0.0000   0.0000   0.3088
   9.500   1.4900   0.02081   0.01421  -0.1084  0.3979  1.0000  -2.8984   0.0000   0.0000   0.0000   0.3077
   9.600   1.4930   0.02119   0.01458  -0.1073  0.3909  1.0000  -2.9362   0.0000   0.0000   0.0000   0.3067
   9.700   1.4961   0.02157   0.01495  -0.1063  0.3842  1.0000  -2.9744   0.0000   0.0000   0.0000   0.3057
   9.800   1.4990   0.02198   0.01532  -0.1053  0.3779  1.0000  -3.0125   0.0000   0.0000   0.0000   0.3047
   9.900   1.5019   0.02239   0.01574  -0.1043  0.3710  1.0000  -3.0503   0.0000   0.0000   0.0000   0.3037
  10.000   1.5047   0.02282   0.01615  -0.1033  0.3646  1.0000  -3.0881   0.0000   0.0000   0.0000   0.3028
  10.100   1.5073   0.02326   0.01658  -0.1023  0.3580  1.0000  -3.1255   0.0000   0.0000   0.0000   0.3018
  10.200   1.5099   0.02371   0.01703  -0.1013  0.3515  1.0000  -3.1631   0.0000   0.0000   0.0000   0.3009
  10.300   1.5123   0.02420   0.01748  -0.1003  0.3454  1.0000  -3.2000   0.0000   0.0000   0.0000   0.2999
  10.400   1.5148   0.02467   0.01797  -0.0994  0.3386  1.0000  -3.2373   0.0000   0.0000   0.0000   0.2990
  10.500   1.5171   0.02517   0.01846  -0.0985  0.3323  1.0000  -3.2742   0.0000   0.0000   0.0000   0.2981
  10.600   1.5191   0.02570   0.01897  -0.0975  0.3261  1.0000  -3.3104   0.0000   0.0000   0.0000   0.2972
  10.700   1.5214   0.02622   0.01949  -0.0966  0.3195  1.0000  -3.3474   0.0000   0.0000   0.0000   0.2963
  10.800   1.5232   0.02677   0.02002  -0.0957  0.3135  1.0000  -3.3831   0.0000   0.0000   0.0000   0.2955
  10.900   1.5252   0.02733   0.02058  -0.0948  0.3070  1.0000  -3.4193   0.0000   0.0000   0.0000   0.2946
  11.000   1.5270   0.02790   0.02115  -0.0939  0.3007  1.0000  -3.4553   0.0000   0.0000   0.0000   0.2937
  11.100   1.5283   0.02852   0.02173  -0.0929  0.2948  1.0000  -3.4896   0.0000   0.0000   0.0000   0.2929
  11.200   1.5302   0.02911   0.02233  -0.0921  0.2882  1.0000  -3.5259   0.0000   0.0000   0.0000   0.2921
  11.300   1.5316   0.02974   0.02295  -0.0912  0.2822  1.0000  -3.5606   0.0000   0.0000   0.0000   0.2912
  11.400   1.5328   0.03039   0.02358  -0.0903  0.2760  1.0000  -3.5949   0.0000   0.0000   0.0000   0.2904
  11.500   1.5344   0.03103   0.02423  -0.0895  0.2697  1.0000  -3.6302   0.0000   0.0000   0.0000   0.2896
  11.600   1.5351   0.03173   0.02491  -0.0886  0.2640  1.0000  -3.6630   0.0000   0.0000   0.0000   0.2888
  11.700   1.5363   0.03240   0.02558  -0.0878  0.2576  1.0000  -3.6974   0.0000   0.0000   0.0000   0.2881
  11.800   1.5373   0.03310   0.02628  -0.0870  0.2516  1.0000  -3.7311   0.0000   0.0000   0.0000   0.2873
  11.900   1.5375   0.03386   0.02701  -0.0861  0.2460  1.0000  -3.7625   0.0000   0.0000   0.0000   0.2865
  12.000   1.5387   0.03457   0.02773  -0.0853  0.2396  1.0000  -3.7968   0.0000   0.0000   0.0000   0.2858
  12.100   1.5392   0.03534   0.02849  -0.0845  0.2338  1.0000  -3.8289   0.0000   0.0000   0.0000   0.2850
  12.200   1.5393   0.03614   0.02927  -0.0837  0.2280  1.0000  -3.8600   0.0000   0.0000   0.0000   0.2843
  12.300   1.5400   0.03691   0.03005  -0.0830  0.2218  1.0000  -3.8927   0.0000   0.0000   0.0000   0.2836
  12.400   1.5398   0.03776   0.03087  -0.0822  0.2163  1.0000  -3.9229   0.0000   0.0000   0.0000   0.2829
  12.500   1.5398   0.03860   0.03170  -0.0814  0.2104  1.0000  -3.9535   0.0000   0.0000   0.0000   0.2822
  12.600   1.5401   0.03944   0.03254  -0.0807  0.2044  1.0000  -3.9849   0.0000   0.0000   0.0000   0.2815
  12.700   1.5395   0.04036   0.03344  -0.0799  0.1991  1.0000  -4.0134   0.0000   0.0000   0.0000   0.2808
  12.800   1.5396   0.04125   0.03433  -0.0793  0.1932  1.0000  -4.0441   0.0000   0.0000   0.0000   0.2801
  12.900   1.5395   0.04216   0.03523  -0.0786  0.1875  1.0000  -4.0742   0.0000   0.0000   0.0000   0.2795
  13.000   1.5384   0.04317   0.03622  -0.0779  0.1825  1.0000  -4.1011   0.0000   0.0000   0.0000   0.2789
  13.100   1.5386   0.04410   0.03715  -0.0773  0.1766  1.0000  -4.1319   0.0000   0.0000   0.0000   0.2783
  13.200   1.5382   0.04508   0.03812  -0.0767  0.1713  1.0000  -4.1607   0.0000   0.0000   0.0000   0.2777
  13.300   1.5369   0.04614   0.03915  -0.0760  0.1665  1.0000  -4.1869   0.0000   0.0000   0.0000   0.2771
  13.400   1.5370   0.04711   0.04013  -0.0755  0.1610  1.0000  -4.2170   0.0000   0.0000   0.0000   0.2765
  13.500   1.5360   0.04818   0.04118  -0.0749  0.1564  1.0000  -4.2437   0.0000   0.0000   0.0000   0.2759
  13.600   1.5354   0.04923   0.04222  -0.0743  0.1516  1.0000  -4.2715   0.0000   0.0000   0.0000   0.2754
  13.700   1.5350   0.05027   0.04327  -0.0738  0.1469  1.0000  -4.3020   0.0000   0.0000   0.0000   0.2749
  13.800   1.5336   0.05142   0.04439  -0.0733  0.1429  1.0000  -4.3296   0.0000   0.0000   0.0000   0.2743
  13.900   1.5337   0.05245   0.04544  -0.0728  0.1383  1.0000  -4.3613   0.0000   0.0000   0.0000   0.2738
  14.000   1.5319   0.05365   0.04661  -0.0723  0.1348  1.0000  -4.3874   0.0000   0.0000   0.0000   0.2733
  14.100   1.5323   0.05468   0.04766  -0.0719  0.1304  1.0000  -4.4199   0.0000   0.0000   0.0000   0.2728
  14.200   1.5304   0.05591   0.04886  -0.0714  0.1274  1.0000  -4.4454   0.0000   0.0000   0.0000   0.2724
  14.300   1.5309   0.05694   0.04992  -0.0710  0.1233  1.0000  -4.4779   0.0000   0.0000   0.0000   0.2719
  14.400   1.5292   0.05818   0.05114  -0.0706  0.1205  1.0000  -4.5036   0.0000   0.0000   0.0000   0.2714
  14.500   1.5294   0.05925   0.05223  -0.0702  0.1169  1.0000  -4.5350   0.0000   0.0000   0.0000   0.2710
  14.600   1.5281   0.06047   0.05345  -0.0699  0.1141  1.0000  -4.5619   0.0000   0.0000   0.0000   0.2705
  14.700   1.5276   0.06162   0.05462  -0.0695  0.1112  1.0000  -4.5907   0.0000   0.0000   0.0000   0.2701
  14.800   1.5271   0.06279   0.05580  -0.0692  0.1083  1.0000  -4.6198   0.0000   0.0000   0.0000   0.2697
  14.900   1.5252   0.06410   0.05707  -0.0688  0.1062  1.0000  -4.6443   0.0000   0.0000   0.0000   0.2693
  15.000   1.5257   0.06518   0.05820  -0.0685  0.1032  1.0000  -4.6760   0.0000   0.0000   0.0000   0.2688
  15.100   1.5248   0.06642   0.05944  -0.0683  0.1009  1.0000  -4.7036   0.0000   0.0000   0.0000   0.2685
  15.200   1.5235   0.06769   0.06070  -0.0680  0.0989  1.0000  -4.7294   0.0000   0.0000   0.0000   0.2681
  15.300   1.5237   0.06882   0.06188  -0.0677  0.0964  1.0000  -4.7599   0.0000   0.0000   0.0000   0.2677
  15.400   1.5228   0.07008   0.06313  -0.0675  0.0944  1.0000  -4.7871   0.0000   0.0000   0.0000   0.2673
  15.500   1.5215   0.07136   0.06440  -0.0672  0.0926  1.0000  -4.8127   0.0000   0.0000   0.0000   0.2670
  15.600   1.5217   0.07251   0.06560  -0.0670  0.0903  1.0000  -4.8426   0.0000   0.0000   0.0000   0.2666
  15.700   1.5210   0.07376   0.06686  -0.0668  0.0884  1.0000  -4.8701   0.0000   0.0000   0.0000   0.2663
  15.800   1.5196   0.07506   0.06813  -0.0666  0.0870  1.0000  -4.8954   0.0000   0.0000   0.0000   0.2660
  15.900   1.5197   0.07624   0.06937  -0.0664  0.0849  1.0000  -4.9240   0.0000   0.0000   0.0000   0.2656
  16.000   1.5193   0.07749   0.07064  -0.0663  0.0831  1.0000  -4.9518   0.0000   0.0000   0.0000   0.2653
  16.100   1.5184   0.07877   0.07191  -0.0661  0.0816  1.0000  -4.9787   0.0000   0.0000   0.0000   0.2650
  16.200   1.5176   0.08002   0.07317  -0.0660  0.0801  1.0000  -5.0051   0.0000   0.0000   0.0000   0.2647
  16.300   1.5175   0.08127   0.07448  -0.0659  0.0782  1.0000  -5.0324   0.0000   0.0000   0.0000   0.2644
  16.400   1.5170   0.08255   0.07577  -0.0658  0.0767  1.0000  -5.0632   0.0000   0.0000   0.0000   0.2641
  16.500   1.5162   0.08382   0.07703  -0.0657  0.0754  1.0000  -5.0963   0.0000   0.0000   0.0000   0.2639
  16.600   1.5157   0.08508   0.07831  -0.0656  0.0739  1.0000  -5.1310   0.0000   0.0000   0.0000   0.2636
  16.700   1.5154   0.08638   0.07967  -0.0656  0.0723  1.0000  -5.1654   0.0000   0.0000   0.0000   0.2633
  16.800   1.5149   0.08767   0.08098  -0.0655  0.0709  1.0000  -5.2002   0.0000   0.0000   0.0000   0.2631
  16.900   1.5144   0.08892   0.08220  -0.0655  0.0697  1.0000  -5.2365   0.0000   0.0000   0.0000   0.2628
  17.000   1.5140   0.09017   0.08347  -0.0654  0.0684  1.0000  -5.2709   0.0000   0.0000   0.0000   0.2626
  17.100   1.5134   0.09153   0.08490  -0.0655  0.0670  1.0000  -5.3032   0.0000   0.0000   0.0000   0.2624
  17.200   1.5130   0.09283   0.08622  -0.0655  0.0657  1.0000  -5.3378   0.0000   0.0000   0.0000   0.2622
  17.300   1.5126   0.09406   0.08744  -0.0655  0.0645  1.0000  -5.3744   0.0000   0.0000   0.0000   0.2619
  17.400   1.5128   0.09516   0.08851  -0.0654  0.0635  1.0000  -5.4131   0.0000   0.0000   0.0000   0.2616
  17.500   1.5119   0.09661   0.09006  -0.0655  0.0622  1.0000  -5.4417   0.0000   0.0000   0.0000   0.2615
  17.600   1.5114   0.09795   0.09143  -0.0656  0.0610  1.0000  -5.4745   0.0000   0.0000   0.0000   0.2613
  17.700   1.5113   0.09918   0.09268  -0.0656  0.0599  1.0000  -5.5110   0.0000   0.0000   0.0000   0.2611
  17.800   1.5120   0.10024   0.09370  -0.0656  0.0590  1.0000  -5.5526   0.0000   0.0000   0.0000   0.2608
  17.900   1.5124   0.10136   0.09484  -0.0655  0.0579  1.0000  -5.5899   0.0000   0.0000   0.0000   0.2605
  18.000   1.5114   0.10283   0.09639  -0.0657  0.0569  1.0000  -5.6173   0.0000   0.0000   0.0000   0.2604
  18.100   1.5112   0.10413   0.09773  -0.0658  0.0558  1.0000  -5.6506   0.0000   0.0000   0.0000   0.2603
  18.200   1.5116   0.10530   0.09890  -0.0659  0.0549  1.0000  -5.6890   0.0000   0.0000   0.0000   0.2601
  18.300   1.5132   0.10622   0.09979  -0.0658  0.0540  1.0000  -5.7350   0.0000   0.0000   0.0000   0.2598
  18.400   1.5154   0.10697   0.10051  -0.0656  0.0531  1.0000  -5.7834   0.0000   0.0000   0.0000   0.2593
  18.500   1.5139   0.10856   0.10221  -0.0659  0.0523  1.0000  -5.8054   0.0000   0.0000   0.0000   0.2593
  18.600   1.5135   0.10993   0.10364  -0.0661  0.0514  1.0000  -5.8356   0.0000   0.0000   0.0000   0.2592
  18.700   1.5139   0.11112   0.10486  -0.0663  0.0506  1.0000  -5.8719   0.0000   0.0000   0.0000   0.2590
  18.800   1.5152   0.11213   0.10586  -0.0663  0.0499  1.0000  -5.9151   0.0000   0.0000   0.0000   0.2588
  18.900   1.5183   0.11278   0.10647  -0.0662  0.0491  1.0000  -5.9697   0.0000   0.0000   0.0000   0.2584
  19.000   1.5223   0.11320   0.10685  -0.0659  0.0484  1.0000  -6.0283   0.0000   0.0000   0.0000   0.2578
  19.100   1.5200   0.11492   0.10869  -0.0663  0.0477  1.0000  -6.0450   0.0000   0.0000   0.0000   0.2579
  19.200   1.5189   0.11644   0.11028  -0.0667  0.0471  1.0000  -6.0694   0.0000   0.0000   0.0000   0.2579
  19.300   1.5185   0.11780   0.11170  -0.0670  0.0464  1.0000  -6.0995   0.0000   0.0000   0.0000   0.2579
  19.400   1.5191   0.11897   0.11291  -0.0672  0.0458  1.0000  -6.1367   0.0000   0.0000   0.0000   0.2577
  19.500   1.5208   0.11992   0.11386  -0.0673  0.0452  1.0000  -6.1822   0.0000   0.0000   0.0000   0.2575
  19.600   1.5245   0.12047   0.11436  -0.0672  0.0446  1.0000  -6.2414   0.0000   0.0000   0.0000   0.2571
  19.700   1.5319   0.12022   0.11401  -0.0666  0.0439  1.0000  -6.3237   0.0000   0.0000   0.0000   0.2562
  19.800   1.5289   0.12209   0.11600  -0.0672  0.0435  1.0000  -6.3344   0.0000   0.0000   0.0000   0.2564
  19.900   1.5268   0.12383   0.11784  -0.0678  0.0430  1.0000  -6.3505   0.0000   0.0000   0.0000   0.2566
  20.000   1.5254   0.12541   0.11950  -0.0683  0.0425  1.0000  -6.3718   0.0000   0.0000   0.0000   0.2567


