xflr5 v6.57

 Calculated polar for: QX0023

 1 1 Reynolds number fixed          Mach number fixed         

 xtrf =   1.000 (top)        1.000 (bottom)
 Mach =   0.000     Re =     0.960 e 6     Ncrit =   9.000

  alpha     CL        CD       CDp       Cm    Top Xtr Bot Xtr   Cpmin    Chinge    XCp    
 ------- -------- --------- --------- -------- ------- ------- -------- --------- ---------
 -10.000  -0.4985   0.01715   0.01206  -0.1302  0.8118  0.0203  -6.5049   0.0000   0.0000   0.0000  -0.0302
  -9.900  -0.4881   0.01694   0.01182  -0.1302  0.8108  0.0205  -6.4074   0.0000   0.0000   0.0000  -0.0360
  -9.800  -0.4775   0.01673   0.01160  -0.1303  0.8095  0.0206  -6.3096   0.0000   0.0000   0.0000  -0.0422
  -9.700  -0.4669   0.01653   0.01138  -0.1304  0.8082  0.0208  -6.2122   0.0000   0.0000   0.0000  -0.0487
  -9.600  -0.4563   0.01633   0.01116  -0.1305  0.8068  0.0209  -6.1157   0.0000   0.0000   0.0000  -0.0555
  -9.500  -0.4456   0.01613   0.01094  -0.1306  0.8055  0.0211  -6.0200   0.0000   0.0000   0.0000  -0.0626
  -9.400  -0.4349   0.01593   0.01071  -0.1306  0.8043  0.0213  -5.9253   0.0000   0.0000   0.0000  -0.0701
  -9.300  -0.4242   0.01574   0.01048  -0.1307  0.8032  0.0215  -5.8316   0.0000   0.0000   0.0000  -0.0780
  -9.200  -0.4135   0.01554   0.01024  -0.1308  0.8021  0.0216  -5.7388   0.0000   0.0000   0.0000  -0.0863
  -9.100  -0.4028   0.01535   0.01001  -0.1308  0.8010  0.0218  -5.6467   0.0000   0.0000   0.0000  -0.0950
  -9.000  -0.3920   0.01515   0.00978  -0.1309  0.7998  0.0220  -5.5550   0.0000   0.0000   0.0000  -0.1044
  -8.900  -0.3811   0.01496   0.00956  -0.1310  0.7984  0.0222  -5.4636   0.0000   0.0000   0.0000  -0.1143
  -8.800  -0.3702   0.01478   0.00936  -0.1311  0.7971  0.0224  -5.3717   0.0000   0.0000   0.0000  -0.1249
  -8.700  -0.3592   0.01463   0.00918  -0.1311  0.7959  0.0226  -5.2794   0.0000   0.0000   0.0000  -0.1362
  -8.600  -0.3481   0.01450   0.00901  -0.1312  0.7947  0.0228  -5.1866   0.0000   0.0000   0.0000  -0.1484
  -8.500  -0.3369   0.01439   0.00886  -0.1313  0.7936  0.0229  -5.0937   0.0000   0.0000   0.0000  -0.1614
  -8.400  -0.3261   0.01420   0.00863  -0.1313  0.7926  0.0231  -5.0057   0.0000   0.0000   0.0000  -0.1749
  -8.200  -0.3056   0.01347   0.00785  -0.1314  0.7903  0.0237  -4.8566   0.0000   0.0000   0.0000  -0.2030
  -8.100  -0.2946   0.01328   0.00766  -0.1315  0.7890  0.0240  -4.7737   0.0000   0.0000   0.0000  -0.2197
  -8.000  -0.2836   0.01313   0.00749  -0.1316  0.7877  0.0242  -4.6899   0.0000   0.0000   0.0000  -0.2379
  -7.900  -0.2724   0.01298   0.00734  -0.1317  0.7865  0.0244  -4.6062   0.0000   0.0000   0.0000  -0.2577
  -7.800  -0.2613   0.01285   0.00719  -0.1318  0.7853  0.0247  -4.5231   0.0000   0.0000   0.0000  -0.2792
  -7.700  -0.2501   0.01272   0.00704  -0.1318  0.7842  0.0249  -4.4409   0.0000   0.0000   0.0000  -0.3027
  -7.600  -0.2389   0.01259   0.00689  -0.1319  0.7832  0.0252  -4.3596   0.0000   0.0000   0.0000  -0.3284
  -7.500  -0.2277   0.01247   0.00673  -0.1320  0.7822  0.0255  -4.2792   0.0000   0.0000   0.0000  -0.3567
  -7.400  -0.2164   0.01234   0.00659  -0.1321  0.7810  0.0258  -4.1994   0.0000   0.0000   0.0000  -0.3881
  -7.300  -0.2051   0.01221   0.00644  -0.1321  0.7797  0.0261  -4.1201   0.0000   0.0000   0.0000  -0.4231
  -7.200  -0.1938   0.01209   0.00630  -0.1322  0.7785  0.0263  -4.0412   0.0000   0.0000   0.0000  -0.4623
  -7.100  -0.1824   0.01199   0.00617  -0.1323  0.7772  0.0266  -3.9623   0.0000   0.0000   0.0000  -0.5064
  -7.000  -0.1710   0.01190   0.00605  -0.1324  0.7761  0.0268  -3.8833   0.0000   0.0000   0.0000  -0.5567
  -6.900  -0.1601   0.01165   0.00578  -0.1324  0.7749  0.0272  -3.8125   0.0000   0.0000   0.0000  -0.6113
  -6.800  -0.1492   0.01142   0.00554  -0.1325  0.7739  0.0276  -3.7414   0.0000   0.0000   0.0000  -0.6743
  -6.700  -0.1380   0.01129   0.00539  -0.1326  0.7728  0.0280  -3.6701   0.0000   0.0000   0.0000  -0.7494
  -6.600  -0.1266   0.01119   0.00529  -0.1327  0.7718  0.0284  -3.5974   0.0000   0.0000   0.0000  -0.8391
  -6.500  -0.1152   0.01110   0.00519  -0.1328  0.7705  0.0288  -3.5249   0.0000   0.0000   0.0000  -0.9472
  -6.400  -0.1037   0.01101   0.00510  -0.1329  0.7693  0.0293  -3.4533   0.0000   0.0000   0.0000  -1.0793
  -6.300  -0.0923   0.01092   0.00500  -0.1330  0.7680  0.0298  -3.3828   0.0000   0.0000   0.0000  -1.2444
  -6.200  -0.0808   0.01083   0.00490  -0.1331  0.7668  0.0302  -3.3134   0.0000   0.0000   0.0000  -1.4565
  -6.100  -0.0693   0.01075   0.00480  -0.1331  0.7656  0.0306  -3.2445   0.0000   0.0000   0.0000  -1.7396
  -6.000  -0.0577   0.01069   0.00470  -0.1332  0.7645  0.0310  -3.1759   0.0000   0.0000   0.0000  -2.1367
  -5.900  -0.0466   0.01048   0.00447  -0.1333  0.7635  0.0316  -3.1140   0.0000   0.0000   0.0000  -2.7043
  -5.800  -0.0353   0.01035   0.00433  -0.1334  0.7625  0.0322  -3.0473   0.0000   0.0000   0.0000  -3.6513
  -5.700  -0.0239   0.01025   0.00424  -0.1335  0.7613  0.0328  -2.9791   0.0000   0.0000   0.0000  -5.5283
  -5.600  -0.0123   0.01017   0.00416  -0.1336  0.7600  0.0333  -2.9113   0.0000   0.0000   0.0000  -10.9223
  -5.500  -0.0008   0.01008   0.00407  -0.1337  0.7587  0.0340  -2.8443   0.0000   0.0000   0.0000  -170.7573
  -5.400   0.0107   0.01001   0.00398  -0.1338  0.7574  0.0346  -2.7780   0.0000   0.0000   0.0000  13.0781
  -5.300   0.0223   0.00995   0.00390  -0.1339  0.7563  0.0351  -2.7121   0.0000   0.0000   0.0000   6.4237
  -5.200   0.0339   0.00987   0.00380  -0.1339  0.7551  0.0357  -2.6476   0.0000   0.0000   0.0000   4.3204
  -5.100   0.0452   0.00972   0.00365  -0.1340  0.7541  0.0366  -2.5851   0.0000   0.0000   0.0000   3.2989
  -5.000   0.0567   0.00964   0.00356  -0.1341  0.7530  0.0374  -2.5201   0.0000   0.0000   0.0000   2.6803
  -4.900   0.0683   0.00957   0.00349  -0.1342  0.7519  0.0382  -2.4553   0.0000   0.0000   0.0000   2.2687
  -4.800   0.0799   0.00951   0.00342  -0.1343  0.7506  0.0390  -2.3911   0.0000   0.0000   0.0000   1.9759
  -4.700   0.0915   0.00945   0.00336  -0.1344  0.7493  0.0398  -2.3313   0.0000   0.0000   0.0000   1.7567
  -4.600   0.1031   0.00937   0.00327  -0.1345  0.7480  0.0407  -2.2744   0.0000   0.0000   0.0000   1.5878
  -4.500   0.1146   0.00926   0.00317  -0.1346  0.7467  0.0419  -2.2176   0.0000   0.0000   0.0000   1.4537
  -4.400   0.1261   0.00919   0.00310  -0.1347  0.7455  0.0429  -2.1598   0.0000   0.0000   0.0000   1.3433
  -4.300   0.1377   0.00914   0.00304  -0.1348  0.7444  0.0440  -2.1028   0.0000   0.0000   0.0000   1.2513
  -4.200   0.1494   0.00910   0.00298  -0.1349  0.7433  0.0450  -2.0465   0.0000   0.0000   0.0000   1.1733
  -4.100   0.1609   0.00902   0.00288  -0.1350  0.7421  0.0464  -1.9919   0.0000   0.0000   0.0000   1.1071
  -4.000   0.1725   0.00893   0.00282  -0.1351  0.7408  0.0478  -1.9364   0.0000   0.0000   0.0000   1.0498
  -3.900   0.1841   0.00887   0.00276  -0.1352  0.7394  0.0492  -1.8811   0.0000   0.0000   0.0000   0.9994
  -3.800   0.1958   0.00883   0.00271  -0.1353  0.7380  0.0506  -1.8264   0.0000   0.0000   0.0000   0.9548
  -3.700   0.2073   0.00873   0.00263  -0.1354  0.7367  0.0527  -1.7728   0.0000   0.0000   0.0000   0.9157
  -3.600   0.2189   0.00867   0.00257  -0.1355  0.7354  0.0549  -1.7187   0.0000   0.0000   0.0000   0.8804
  -3.500   0.2305   0.00862   0.00251  -0.1356  0.7342  0.0573  -1.6654   0.0000   0.0000   0.0000   0.8487
  -3.400   0.2421   0.00856   0.00246  -0.1357  0.7331  0.0602  -1.6124   0.0000   0.0000   0.0000   0.8201
  -3.300   0.2537   0.00850   0.00240  -0.1358  0.7319  0.0635  -1.5600   0.0000   0.0000   0.0000   0.7941
  -3.200   0.2653   0.00843   0.00236  -0.1359  0.7304  0.0675  -1.5079   0.0000   0.0000   0.0000   0.7704
  -3.100   0.2769   0.00836   0.00231  -0.1360  0.7289  0.0723  -1.4563   0.0000   0.0000   0.0000   0.7487
  -3.000   0.2885   0.00829   0.00226  -0.1362  0.7274  0.0781  -1.4051   0.0000   0.0000   0.0000   0.7288
  -2.900   0.3001   0.00821   0.00222  -0.1363  0.7260  0.0851  -1.3542   0.0000   0.0000   0.0000   0.7104
  -2.800   0.3117   0.00815   0.00217  -0.1364  0.7247  0.0932  -1.3042   0.0000   0.0000   0.0000   0.6933
  -2.700   0.3232   0.00809   0.00213  -0.1365  0.7234  0.1019  -1.2581   0.0000   0.0000   0.0000   0.6775
  -2.600   0.3348   0.00804   0.00209  -0.1366  0.7222  0.1111  -1.2123   0.0000   0.0000   0.0000   0.6628
  -2.500   0.3464   0.00796   0.00206  -0.1367  0.7207  0.1210  -1.1669   0.0000   0.0000   0.0000   0.6491
  -2.400   0.3580   0.00789   0.00204  -0.1368  0.7191  0.1317  -1.1218   0.0000   0.0000   0.0000   0.6363
  -2.300   0.3696   0.00783   0.00201  -0.1370  0.7176  0.1429  -1.0770   0.0000   0.0000   0.0000   0.6243
  -2.200   0.3812   0.00777   0.00198  -0.1371  0.7161  0.1539  -1.0327   0.0000   0.0000   0.0000   0.6129
  -2.100   0.3927   0.00771   0.00196  -0.1372  0.7147  0.1648  -0.9887   0.0000   0.0000   0.0000   0.6023
  -2.000   0.4043   0.00767   0.00193  -0.1373  0.7133  0.1756  -0.9452   0.0000   0.0000   0.0000   0.5922
  -1.900   0.4159   0.00763   0.00191  -0.1374  0.7120  0.1863  -0.9021   0.0000   0.0000   0.0000   0.5827
  -1.800   0.4275   0.00758   0.00190  -0.1375  0.7104  0.1970  -0.8595   0.0000   0.0000   0.0000   0.5738
  -1.700   0.4391   0.00752   0.00188  -0.1376  0.7087  0.2084  -0.8199   0.0000   0.0000   0.0000   0.5653
  -1.600   0.4507   0.00747   0.00186  -0.1378  0.7071  0.2212  -0.7824   0.0000   0.0000   0.0000   0.5572
  -1.400   0.4738   0.00737   0.00183  -0.1380  0.7040  0.2490  -0.7970   0.0000   0.0000   0.0000   0.5423
  -1.300   0.4854   0.00733   0.00182  -0.1381  0.7026  0.2625  -0.8044   0.0000   0.0000   0.0000   0.5353
  -1.200   0.4970   0.00729   0.00181  -0.1382  0.7012  0.2763  -0.8117   0.0000   0.0000   0.0000   0.5287
  -1.000   0.5201   0.00717   0.00180  -0.1385  0.6977  0.3104  -0.8266   0.0000   0.0000   0.0000   0.5164
  -0.900   0.5317   0.00711   0.00179  -0.1386  0.6960  0.3301  -0.8342   0.0000   0.0000   0.0000   0.5107
  -0.800   0.5432   0.00705   0.00178  -0.1387  0.6943  0.3509  -0.8421   0.0000   0.0000   0.0000   0.5051
  -0.700   0.5547   0.00699   0.00178  -0.1388  0.6928  0.3732  -0.8501   0.0000   0.0000   0.0000   0.4999
  -0.600   0.5661   0.00694   0.00178  -0.1389  0.6913  0.3979  -0.8581   0.0000   0.0000   0.0000   0.4948
  -0.500   0.5777   0.00687   0.00178  -0.1391  0.6895  0.4246  -0.8663   0.0000   0.0000   0.0000   0.4900
  -0.400   0.5892   0.00679   0.00179  -0.1392  0.6877  0.4510  -0.8745   0.0000   0.0000   0.0000   0.4853
  -0.300   0.6006   0.00672   0.00180  -0.1393  0.6858  0.4804  -0.8826   0.0000   0.0000   0.0000   0.4808
  -0.200   0.6121   0.00665   0.00181  -0.1394  0.6841  0.5103  -0.8909   0.0000   0.0000   0.0000   0.4765
  -0.100   0.6235   0.00661   0.00182  -0.1395  0.6824  0.5384  -0.8992   0.0000   0.0000   0.0000   0.4723
   0.000   0.6348   0.00657   0.00183  -0.1395  0.6808  0.5617  -0.9077   0.0000   0.0000   0.0000   0.4682
   0.100   0.6463   0.00652   0.00184  -0.1396  0.6789  0.5846  -0.9166   0.0000   0.0000   0.0000   0.4643
   0.200   0.6578   0.00647   0.00186  -0.1397  0.6768  0.6072  -0.9255   0.0000   0.0000   0.0000   0.4605
   0.300   0.6691   0.00642   0.00188  -0.1398  0.6749  0.6307  -0.9345   0.0000   0.0000   0.0000   0.4569
   0.400   0.6804   0.00639   0.00190  -0.1398  0.6730  0.6546  -0.9436   0.0000   0.0000   0.0000   0.4533
   0.500   0.6917   0.00639   0.00191  -0.1398  0.6713  0.6736  -0.9527   0.0000   0.0000   0.0000   0.4498
   0.600   0.7031   0.00637   0.00193  -0.1399  0.6695  0.6900  -0.9618   0.0000   0.0000   0.0000   0.4465
   0.700   0.7145   0.00635   0.00195  -0.1399  0.6673  0.7057  -0.9711   0.0000   0.0000   0.0000   0.4432
   0.800   0.7258   0.00633   0.00197  -0.1399  0.6652  0.7200  -0.9805   0.0000   0.0000   0.0000   0.4401
   0.900   0.7371   0.00632   0.00198  -0.1400  0.6631  0.7332  -0.9902   0.0000   0.0000   0.0000   0.4370
   1.000   0.7483   0.00632   0.00200  -0.1400  0.6612  0.7458  -1.0000   0.0000   0.0000   0.0000   0.4340
   1.100   0.7594   0.00632   0.00202  -0.1399  0.6593  0.7586  -1.0099   0.0000   0.0000   0.0000   0.4311
   1.200   0.7707   0.00630   0.00204  -0.1400  0.6570  0.7711  -1.0200   0.0000   0.0000   0.0000   0.4283
   1.300   0.7819   0.00629   0.00206  -0.1400  0.6547  0.7833  -1.0302   0.0000   0.0000   0.0000   0.4256
   1.400   0.7930   0.00628   0.00208  -0.1399  0.6525  0.7955  -1.0403   0.0000   0.0000   0.0000   0.4229
   1.500   0.8039   0.00628   0.00210  -0.1398  0.6505  0.8080  -1.0503   0.0000   0.0000   0.0000   0.4203
   1.600   0.8148   0.00628   0.00212  -0.1398  0.6484  0.8213  -1.0605   0.0000   0.0000   0.0000   0.4177
   1.700   0.8258   0.00627   0.00214  -0.1397  0.6459  0.8349  -1.0710   0.0000   0.0000   0.0000   0.4152
   1.800   0.8365   0.00625   0.00216  -0.1396  0.6435  0.8480  -1.0818   0.0000   0.0000   0.0000   0.4128
   1.900   0.8469   0.00625   0.00218  -0.1394  0.6411  0.8618  -1.0925   0.0000   0.0000   0.0000   0.4104
   2.000   0.8568   0.00624   0.00221  -0.1391  0.6390  0.8778  -1.1029   0.0000   0.0000   0.0000   0.4080
   2.100   0.8667   0.00622   0.00223  -0.1388  0.6365  0.8967  -1.1133   0.0000   0.0000   0.0000   0.4056
   2.200   0.8759   0.00619   0.00225  -0.1382  0.6339  0.9181  -1.1236   0.0000   0.0000   0.0000   0.4032
   2.300   0.8850   0.00616   0.00225  -0.1377  0.6313  0.9458  -1.1339   0.0000   0.0000   0.0000   0.4009
   2.400   0.9002   0.00614   0.00224  -0.1386  0.6289  0.9886  -1.1480   0.0000   0.0000   0.0000   0.3991
   2.500   0.9122   0.00616   0.00225  -0.1388  0.6263  1.0000  -1.1602   0.0000   0.0000   0.0000   0.3971
   2.600   0.9237   0.00619   0.00228  -0.1389  0.6235  1.0000  -1.1723   0.0000   0.0000   0.0000   0.3952
   2.700   0.9350   0.00623   0.00230  -0.1389  0.6206  1.0000  -1.1847   0.0000   0.0000   0.0000   0.3934
   2.800   0.9461   0.00627   0.00232  -0.1390  0.6180  1.0000  -1.1972   0.0000   0.0000   0.0000   0.3915
   2.900   0.9575   0.00631   0.00235  -0.1390  0.6151  1.0000  -1.2100   0.0000   0.0000   0.0000   0.3897
   3.000   0.9689   0.00634   0.00237  -0.1391  0.6119  1.0000  -1.2228   0.0000   0.0000   0.0000   0.3880
   3.100   0.9800   0.00638   0.00240  -0.1391  0.6088  1.0000  -1.2355   0.0000   0.0000   0.0000   0.3862
   3.200   0.9910   0.00643   0.00243  -0.1392  0.6060  1.0000  -1.2485   0.0000   0.0000   0.0000   0.3845
   3.300   1.0024   0.00646   0.00246  -0.1392  0.6026  1.0000  -1.2618   0.0000   0.0000   0.0000   0.3829
   3.400   1.0135   0.00651   0.00249  -0.1393  0.5992  1.0000  -1.2752   0.0000   0.0000   0.0000   0.3813
   3.500   1.0243   0.00657   0.00252  -0.1392  0.5960  1.0000  -1.2894   0.0000   0.0000   0.0000   0.3797
   3.600   1.0356   0.00660   0.00256  -0.1393  0.5923  1.0000  -1.3039   0.0000   0.0000   0.0000   0.3781
   3.700   1.0465   0.00665   0.00259  -0.1393  0.5884  1.0000  -1.3184   0.0000   0.0000   0.0000   0.3766
   3.900   1.0684   0.00676   0.00267  -0.1393  0.5807  1.0000  -1.3481   0.0000   0.0000   0.0000   0.3736
   4.000   1.0792   0.00681   0.00271  -0.1392  0.5766  1.0000  -1.3629   0.0000   0.0000   0.0000   0.3721
   4.100   1.0899   0.00688   0.00276  -0.1392  0.5728  1.0000  -1.3786   0.0000   0.0000   0.0000   0.3707
   4.200   1.1009   0.00693   0.00280  -0.1392  0.5685  1.0000  -1.3951   0.0000   0.0000   0.0000   0.3693
   4.300   1.1114   0.00700   0.00285  -0.1391  0.5642  1.0000  -1.4113   0.0000   0.0000   0.0000   0.3679
   4.400   1.1222   0.00706   0.00289  -0.1391  0.5598  1.0000  -1.4278   0.0000   0.0000   0.0000   0.3665
   4.500   1.1328   0.00712   0.00294  -0.1391  0.5549  1.0000  -1.4446   0.0000   0.0000   0.0000   0.3652
   4.600   1.1432   0.00720   0.00300  -0.1390  0.5503  1.0000  -1.4613   0.0000   0.0000   0.0000   0.3639
   4.700   1.1538   0.00727   0.00305  -0.1389  0.5451  1.0000  -1.4782   0.0000   0.0000   0.0000   0.3626
   4.800   1.1640   0.00735   0.00311  -0.1388  0.5403  1.0000  -1.4953   0.0000   0.0000   0.0000   0.3613
   4.900   1.1746   0.00742   0.00317  -0.1387  0.5350  1.0000  -1.5142   0.0000   0.0000   0.0000   0.3600
   5.000   1.1846   0.00752   0.00324  -0.1386  0.5299  1.0000  -1.5325   0.0000   0.0000   0.0000   0.3587
   5.100   1.1951   0.00759   0.00330  -0.1385  0.5243  1.0000  -1.5514   0.0000   0.0000   0.0000   0.3575
   5.200   1.2050   0.00769   0.00337  -0.1383  0.5187  1.0000  -1.5703   0.0000   0.0000   0.0000   0.3563
   5.300   1.2152   0.00777   0.00344  -0.1382  0.5125  1.0000  -1.5897   0.0000   0.0000   0.0000   0.3551
   5.400   1.2250   0.00788   0.00351  -0.1380  0.5064  1.0000  -1.6090   0.0000   0.0000   0.0000   0.3539
   5.500   1.2349   0.00798   0.00359  -0.1378  0.4998  1.0000  -1.6303   0.0000   0.0000   0.0000   0.3527
   5.600   1.2446   0.00809   0.00367  -0.1376  0.4934  1.0000  -1.6516   0.0000   0.0000   0.0000   0.3515
   5.700   1.2541   0.00821   0.00376  -0.1374  0.4869  1.0000  -1.6731   0.0000   0.0000   0.0000   0.3504
   5.800   1.2639   0.00831   0.00385  -0.1372  0.4803  1.0000  -1.6975   0.0000   0.0000   0.0000   0.3492
   5.900   1.2732   0.00844   0.00394  -0.1369  0.4736  1.0000  -1.7221   0.0000   0.0000   0.0000   0.3481
   6.000   1.2825   0.00857   0.00404  -0.1367  0.4662  1.0000  -1.7472   0.0000   0.0000   0.0000   0.3469
   6.100   1.2917   0.00869   0.00414  -0.1364  0.4589  1.0000  -1.7746   0.0000   0.0000   0.0000   0.3458
   6.200   1.3006   0.00884   0.00425  -0.1361  0.4517  1.0000  -1.8037   0.0000   0.0000   0.0000   0.3447
   6.300   1.3096   0.00898   0.00436  -0.1357  0.4440  1.0000  -1.8331   0.0000   0.0000   0.0000   0.3436
   6.400   1.3185   0.00912   0.00447  -0.1354  0.4365  1.0000  -1.8625   0.0000   0.0000   0.0000   0.3425
   6.500   1.3270   0.00928   0.00459  -0.1350  0.4288  1.0000  -1.8926   0.0000   0.0000   0.0000   0.3414
   6.700   1.3440   0.00960   0.00483  -0.1342  0.4130  1.0000  -1.9536   0.0000   0.0000   0.0000   0.3392
   6.800   1.3524   0.00976   0.00496  -0.1338  0.4056  1.0000  -1.9856   0.0000   0.0000   0.0000   0.3382
   6.900   1.3604   0.00993   0.00510  -0.1333  0.3981  1.0000  -2.0172   0.0000   0.0000   0.0000   0.3371
   7.000   1.3687   0.01009   0.00523  -0.1329  0.3904  1.0000  -2.0507   0.0000   0.0000   0.0000   0.3360
   7.100   1.3767   0.01026   0.00536  -0.1325  0.3829  1.0000  -2.0843   0.0000   0.0000   0.0000   0.3350
   7.200   1.3843   0.01045   0.00551  -0.1319  0.3753  1.0000  -2.1172   0.0000   0.0000   0.0000   0.3339
   7.300   1.3918   0.01064   0.00567  -0.1314  0.3675  1.0000  -2.1499   0.0000   0.0000   0.0000   0.3329
   7.400   1.3996   0.01081   0.00581  -0.1309  0.3601  1.0000  -2.1835   0.0000   0.0000   0.0000   0.3318
   7.500   1.4068   0.01099   0.00596  -0.1302  0.3534  1.0000  -2.2162   0.0000   0.0000   0.0000   0.3308
   7.600   1.4132   0.01117   0.00611  -0.1295  0.3467  1.0000  -2.2475   0.0000   0.0000   0.0000   0.3296
   7.700   1.4201   0.01134   0.00626  -0.1288  0.3402  1.0000  -2.2800   0.0000   0.0000   0.0000   0.3286
   7.800   1.4264   0.01154   0.00643  -0.1280  0.3338  1.0000  -2.3114   0.0000   0.0000   0.0000   0.3275
   7.900   1.4329   0.01174   0.00660  -0.1273  0.3268  1.0000  -2.3433   0.0000   0.0000   0.0000   0.3264
   8.000   1.4393   0.01195   0.00678  -0.1266  0.3198  1.0000  -2.3815   0.0000   0.0000   0.0000   0.3254
   8.100   1.4452   0.01219   0.00698  -0.1258  0.3128  1.0000  -2.4251   0.0000   0.0000   0.0000   0.3243
   8.200   1.4510   0.01243   0.00719  -0.1250  0.3055  1.0000  -2.4687   0.0000   0.0000   0.0000   0.3233
   8.300   1.4572   0.01266   0.00739  -0.1243  0.2984  1.0000  -2.5136   0.0000   0.0000   0.0000   0.3222
   8.400   1.4629   0.01292   0.00762  -0.1236  0.2915  1.0000  -2.5575   0.0000   0.0000   0.0000   0.3212
   8.600   1.4744   0.01344   0.00808  -0.1221  0.2776  1.0000  -2.6460   0.0000   0.0000   0.0000   0.3192
   8.700   1.4800   0.01372   0.00833  -0.1213  0.2710  1.0000  -2.6903   0.0000   0.0000   0.0000   0.3183
   8.800   1.4852   0.01402   0.00860  -0.1206  0.2644  1.0000  -2.7337   0.0000   0.0000   0.0000   0.3173
   8.900   1.4909   0.01430   0.00885  -0.1198  0.2575  1.0000  -2.7786   0.0000   0.0000   0.0000   0.3163
   9.000   1.4963   0.01460   0.00913  -0.1191  0.2509  1.0000  -2.8230   0.0000   0.0000   0.0000   0.3154
   9.100   1.5013   0.01493   0.00942  -0.1183  0.2443  1.0000  -2.8664   0.0000   0.0000   0.0000   0.3144
   9.200   1.5064   0.01526   0.00972  -0.1176  0.2375  1.0000  -2.9105   0.0000   0.0000   0.0000   0.3135
   9.300   1.5118   0.01557   0.01001  -0.1169  0.2312  1.0000  -2.9555   0.0000   0.0000   0.0000   0.3126
   9.400   1.5168   0.01591   0.01032  -0.1162  0.2254  1.0000  -2.9997   0.0000   0.0000   0.0000   0.3117
   9.500   1.5220   0.01625   0.01063  -0.1155  0.2195  1.0000  -3.0447   0.0000   0.0000   0.0000   0.3108
   9.600   1.5274   0.01658   0.01095  -0.1148  0.2138  1.0000  -3.0901   0.0000   0.0000   0.0000   0.3099
   9.700   1.5320   0.01696   0.01129  -0.1141  0.2082  1.0000  -3.1339   0.0000   0.0000   0.0000   0.3090
   9.800   1.5372   0.01730   0.01162  -0.1134  0.2023  1.0000  -3.1793   0.0000   0.0000   0.0000   0.3082
   9.900   1.5420   0.01768   0.01197  -0.1127  0.1967  1.0000  -3.2239   0.0000   0.0000   0.0000   0.3073
  10.000   1.5462   0.01809   0.01236  -0.1119  0.1910  1.0000  -3.2670   0.0000   0.0000   0.0000   0.3064
  10.100   1.5509   0.01848   0.01272  -0.1112  0.1850  1.0000  -3.3118   0.0000   0.0000   0.0000   0.3056
  10.200   1.5553   0.01889   0.01311  -0.1105  0.1792  1.0000  -3.3557   0.0000   0.0000   0.0000   0.3047
  10.300   1.5591   0.01934   0.01353  -0.1097  0.1734  1.0000  -3.3981   0.0000   0.0000   0.0000   0.3039
  10.400   1.5631   0.01978   0.01394  -0.1090  0.1673  1.0000  -3.4412   0.0000   0.0000   0.0000   0.3030
  10.500   1.5671   0.02023   0.01436  -0.1082  0.1615  1.0000  -3.4847   0.0000   0.0000   0.0000   0.3022
  10.600   1.5708   0.02070   0.01480  -0.1075  0.1561  1.0000  -3.5273   0.0000   0.0000   0.0000   0.3014
  10.700   1.5744   0.02118   0.01526  -0.1067  0.1506  1.0000  -3.5696   0.0000   0.0000   0.0000   0.3006
  10.800   1.5785   0.02163   0.01569  -0.1060  0.1453  1.0000  -3.6139   0.0000   0.0000   0.0000   0.2998
  10.900   1.5821   0.02211   0.01615  -0.1053  0.1405  1.0000  -3.6566   0.0000   0.0000   0.0000   0.2989
  11.000   1.5857   0.02260   0.01662  -0.1045  0.1356  1.0000  -3.6995   0.0000   0.0000   0.0000   0.2981
  11.100   1.5896   0.02307   0.01707  -0.1038  0.1310  1.0000  -3.7434   0.0000   0.0000   0.0000   0.2974
  11.200   1.5929   0.02359   0.01757  -0.1031  0.1266  1.0000  -3.7856   0.0000   0.0000   0.0000   0.2966
  11.300   1.5966   0.02409   0.01805  -0.1024  0.1220  1.0000  -3.8294   0.0000   0.0000   0.0000   0.2958
  11.400   1.6002   0.02459   0.01854  -0.1017  0.1179  1.0000  -3.8727   0.0000   0.0000   0.0000   0.2950
  11.500   1.6034   0.02513   0.01905  -0.1010  0.1137  1.0000  -3.9151   0.0000   0.0000   0.0000   0.2943
  11.600   1.6071   0.02562   0.01954  -0.1003  0.1099  1.0000  -3.9594   0.0000   0.0000   0.0000   0.2935
  11.700   1.6099   0.02619   0.02009  -0.0996  0.1061  1.0000  -4.0007   0.0000   0.0000   0.0000   0.2928
  11.800   1.6137   0.02669   0.02058  -0.0990  0.1024  1.0000  -4.0452   0.0000   0.0000   0.0000   0.2920
  11.900   1.6165   0.02726   0.02114  -0.0982  0.0990  1.0000  -4.0869   0.0000   0.0000   0.0000   0.2913
  12.000   1.6200   0.02779   0.02166  -0.0976  0.0956  1.0000  -4.1310   0.0000   0.0000   0.0000   0.2905
  12.100   1.6228   0.02837   0.02223  -0.0969  0.0925  1.0000  -4.1728   0.0000   0.0000   0.0000   0.2898
  12.200   1.6262   0.02891   0.02277  -0.0963  0.0892  1.0000  -4.2168   0.0000   0.0000   0.0000   0.2891
  12.300   1.6289   0.02951   0.02336  -0.0956  0.0863  1.0000  -4.2584   0.0000   0.0000   0.0000   0.2884
  12.400   1.6323   0.03006   0.02391  -0.0949  0.0834  1.0000  -4.3026   0.0000   0.0000   0.0000   0.2877
  12.500   1.6345   0.03070   0.02453  -0.0942  0.0807  1.0000  -4.3431   0.0000   0.0000   0.0000   0.2870
  12.600   1.6380   0.03124   0.02507  -0.0936  0.0781  1.0000  -4.3879   0.0000   0.0000   0.0000   0.2863
  12.700   1.6405   0.03187   0.02570  -0.0930  0.0756  1.0000  -4.4293   0.0000   0.0000   0.0000   0.2856
  12.800   1.6435   0.03246   0.02629  -0.0924  0.0734  1.0000  -4.4728   0.0000   0.0000   0.0000   0.2849
  12.900   1.6465   0.03306   0.02689  -0.0918  0.0711  1.0000  -4.5170   0.0000   0.0000   0.0000   0.2842
  13.000   1.6487   0.03374   0.02756  -0.0911  0.0690  1.0000  -4.5606   0.0000   0.0000   0.0000   0.2836
  13.100   1.6523   0.03431   0.02814  -0.0906  0.0670  1.0000  -4.6090   0.0000   0.0000   0.0000   0.2829
  13.200   1.6550   0.03496   0.02879  -0.0900  0.0650  1.0000  -4.6546   0.0000   0.0000   0.0000   0.2823
  13.300   1.6574   0.03564   0.02947  -0.0894  0.0633  1.0000  -4.6993   0.0000   0.0000   0.0000   0.2816
  13.400   1.6608   0.03624   0.03008  -0.0889  0.0615  1.0000  -4.7476   0.0000   0.0000   0.0000   0.2810
  13.500   1.6633   0.03692   0.03076  -0.0884  0.0598  1.0000  -4.7930   0.0000   0.0000   0.0000   0.2804
  13.600   1.6654   0.03763   0.03148  -0.0878  0.0582  1.0000  -4.8368   0.0000   0.0000   0.0000   0.2798
  13.700   1.6688   0.03824   0.03211  -0.0873  0.0568  1.0000  -4.8854   0.0000   0.0000   0.0000   0.2792
  13.800   1.6713   0.03893   0.03280  -0.0868  0.0553  1.0000  -4.9312   0.0000   0.0000   0.0000   0.2786
  13.900   1.6733   0.03968   0.03355  -0.0862  0.0539  1.0000  -4.9749   0.0000   0.0000   0.0000   0.2779
  14.000   1.6761   0.04035   0.03424  -0.0858  0.0526  1.0000  -5.0219   0.0000   0.0000   0.0000   0.2774
  14.100   1.6790   0.04103   0.03493  -0.0853  0.0514  1.0000  -5.0692   0.0000   0.0000   0.0000   0.2768
  14.200   1.6814   0.04177   0.03567  -0.0848  0.0501  1.0000  -5.1147   0.0000   0.0000   0.0000   0.2762
  14.300   1.6831   0.04256   0.03647  -0.0843  0.0489  1.0000  -5.1579   0.0000   0.0000   0.0000   0.2756
  14.400   1.6858   0.04327   0.03720  -0.0839  0.0478  1.0000  -5.2048   0.0000   0.0000   0.0000   0.2751
  14.500   1.6887   0.04398   0.03793  -0.0834  0.0467  1.0000  -5.2523   0.0000   0.0000   0.0000   0.2745
  14.600   1.6909   0.04474   0.03870  -0.0830  0.0456  1.0000  -5.2977   0.0000   0.0000   0.0000   0.2740
  14.700   1.6924   0.04558   0.03955  -0.0825  0.0445  1.0000  -5.3404   0.0000   0.0000   0.0000   0.2734
  14.800   1.6944   0.04638   0.04036  -0.0821  0.0436  1.0000  -5.3849   0.0000   0.0000   0.0000   0.2729
  14.900   1.6972   0.04711   0.04111  -0.0817  0.0426  1.0000  -5.4323   0.0000   0.0000   0.0000   0.2723
  15.000   1.6991   0.04792   0.04193  -0.0813  0.0416  1.0000  -5.4770   0.0000   0.0000   0.0000   0.2718
  15.100   1.7007   0.04876   0.04279  -0.0808  0.0406  1.0000  -5.5201   0.0000   0.0000   0.0000   0.2713
  15.200   1.7015   0.04970   0.04373  -0.0804  0.0397  1.0000  -5.5600   0.0000   0.0000   0.0000   0.2708
  15.300   1.7037   0.05050   0.04455  -0.0800  0.0389  1.0000  -5.6136   0.0000   0.0000   0.0000   0.2703
  15.400   1.7059   0.05131   0.04538  -0.0797  0.0379  1.0000  -5.6689   0.0000   0.0000   0.0000   0.2698
  15.500   1.7073   0.05221   0.04629  -0.0793  0.0370  1.0000  -5.7206   0.0000   0.0000   0.0000   0.2693
  15.600   1.7081   0.05317   0.04727  -0.0789  0.0361  1.0000  -5.7695   0.0000   0.0000   0.0000   0.2688
  15.700   1.7087   0.05417   0.04828  -0.0785  0.0352  1.0000  -5.8175   0.0000   0.0000   0.0000   0.2683
  15.800   1.7109   0.05501   0.04914  -0.0782  0.0344  1.0000  -5.8732   0.0000   0.0000   0.0000   0.2679
  15.900   1.7123   0.05592   0.05008  -0.0779  0.0335  1.0000  -5.9258   0.0000   0.0000   0.0000   0.2674
  16.000   1.7131   0.05692   0.05109  -0.0776  0.0326  1.0000  -5.9750   0.0000   0.0000   0.0000   0.2670
  16.100   1.7130   0.05801   0.05219  -0.0772  0.0318  1.0000  -6.0200   0.0000   0.0000   0.0000   0.2665
  16.200   1.7138   0.05901   0.05321  -0.0769  0.0311  1.0000  -6.0694   0.0000   0.0000   0.0000   0.2661
  16.300   1.7152   0.05996   0.05418  -0.0766  0.0303  1.0000  -6.1217   0.0000   0.0000   0.0000   0.2656
  16.400   1.7158   0.06098   0.05523  -0.0763  0.0295  1.0000  -6.1706   0.0000   0.0000   0.0000   0.2652
  16.500   1.7158   0.06207   0.05633  -0.0760  0.0287  1.0000  -6.2165   0.0000   0.0000   0.0000   0.2648
  16.600   1.7150   0.06328   0.05755  -0.0757  0.0280  1.0000  -6.2577   0.0000   0.0000   0.0000   0.2644
  16.700   1.7150   0.06439   0.05869  -0.0755  0.0274  1.0000  -6.3034   0.0000   0.0000   0.0000   0.2640
  16.800   1.7158   0.06544   0.05976  -0.0752  0.0267  1.0000  -6.3528   0.0000   0.0000   0.0000   0.2636
  16.900   1.7160   0.06655   0.06090  -0.0750  0.0261  1.0000  -6.3996   0.0000   0.0000   0.0000   0.2632
  17.000   1.7157   0.06772   0.06209  -0.0748  0.0255  1.0000  -6.4440   0.0000   0.0000   0.0000   0.2629
  17.100   1.7148   0.06899   0.06338  -0.0746  0.0250  1.0000  -6.4849   0.0000   0.0000   0.0000   0.2625
  17.200   1.7133   0.07032   0.06473  -0.0744  0.0245  1.0000  -6.5228   0.0000   0.0000   0.0000   0.2622
  17.300   1.7122   0.07163   0.06607  -0.0742  0.0240  1.0000  -6.5624   0.0000   0.0000   0.0000   0.2619
  17.400   1.7127   0.07274   0.06721  -0.0740  0.0236  1.0000  -6.6105   0.0000   0.0000   0.0000   0.2615
  17.500   1.7125   0.07395   0.06845  -0.0739  0.0232  1.0000  -6.6553   0.0000   0.0000   0.0000   0.2612
  17.600   1.7120   0.07520   0.06973  -0.0738  0.0228  1.0000  -6.6982   0.0000   0.0000   0.0000   0.2609
  17.700   1.7113   0.07648   0.07103  -0.0737  0.0224  1.0000  -6.7402   0.0000   0.0000   0.0000   0.2606
  17.800   1.7100   0.07784   0.07242  -0.0736  0.0220  1.0000  -6.7792   0.0000   0.0000   0.0000   0.2603
  17.900   1.7084   0.07922   0.07382  -0.0735  0.0217  1.0000  -6.8170   0.0000   0.0000   0.0000   0.2600
  18.000   1.7060   0.08072   0.07534  -0.0734  0.0214  1.0000  -6.8496   0.0000   0.0000   0.0000   0.2598
  18.100   1.7030   0.08230   0.07695  -0.0733  0.0210  1.0000  -6.8787   0.0000   0.0000   0.0000   0.2596
  18.200   1.7016   0.08371   0.07839  -0.0733  0.0208  1.0000  -6.9165   0.0000   0.0000   0.0000   0.2594
  18.300   1.7015   0.08495   0.07966  -0.0733  0.0205  1.0000  -6.9616   0.0000   0.0000   0.0000   0.2591
  18.400   1.7009   0.08626   0.08102  -0.0733  0.0203  1.0000  -7.0039   0.0000   0.0000   0.0000   0.2589
  18.500   1.7000   0.08761   0.08240  -0.0733  0.0200  1.0000  -7.0452   0.0000   0.0000   0.0000   0.2586
  18.600   1.6989   0.08899   0.08381  -0.0734  0.0197  1.0000  -7.0849   0.0000   0.0000   0.0000   0.2584
  18.700   1.6974   0.09045   0.08530  -0.0734  0.0195  1.0000  -7.1223   0.0000   0.0000   0.0000   0.2582
  18.800   1.6959   0.09191   0.08679  -0.0735  0.0193  1.0000  -7.1596   0.0000   0.0000   0.0000   0.2581
  18.900   1.6938   0.09345   0.08836  -0.0736  0.0190  1.0000  -7.1937   0.0000   0.0000   0.0000   0.2579
  19.000   1.6918   0.09499   0.08993  -0.0738  0.0188  1.0000  -7.2276   0.0000   0.0000   0.0000   0.2578
  19.100   1.6891   0.09663   0.09160  -0.0739  0.0186  1.0000  -7.2576   0.0000   0.0000   0.0000   0.2577
  19.200   1.6862   0.09830   0.09329  -0.0741  0.0185  1.0000  -7.2863   0.0000   0.0000   0.0000   0.2576
  19.300   1.6827   0.10007   0.09510  -0.0743  0.0183  1.0000  -7.3106   0.0000   0.0000   0.0000   0.2576
  19.400   1.6789   0.10188   0.09694  -0.0746  0.0181  1.0000  -7.3324   0.0000   0.0000   0.0000   0.2575
  19.500   1.6742   0.10380   0.09890  -0.0748  0.0179  1.0000  -7.3490   0.0000   0.0000   0.0000   0.2576
  19.600   1.6716   0.10548   0.10061  -0.0751  0.0178  1.0000  -7.3772   0.0000   0.0000   0.0000   0.2575
  19.700   1.6698   0.10702   0.10219  -0.0753  0.0177  1.0000  -7.4111   0.0000   0.0000   0.0000   0.2574
  19.800   1.6680   0.10857   0.10378  -0.0756  0.0176  1.0000  -7.4453   0.0000   0.0000   0.0000   0.2574
  19.900   1.6658   0.11019   0.10545  -0.0759  0.0175  1.0000  -7.4786   0.0000   0.0000   0.0000   0.2574
  20.000   1.6637   0.11180   0.10710  -0.0762  0.0174  1.0000  -7.5124   0.0000   0.0000   0.0000   0.2573


