xflr5 v6.57

 Calculated polar for: QX0023

 1 1 Reynolds number fixed          Mach number fixed         

 xtrf =   1.000 (top)        1.000 (bottom)
 Mach =   0.000     Re =     0.700 e 6     Ncrit =   9.000

  alpha     CL        CD       CDp       Cm    Top Xtr Bot Xtr   Cpmin    Chinge    XCp    
 ------- -------- --------- --------- -------- ------- ------- -------- --------- ---------
 -10.000  -0.4799   0.02197   0.01702  -0.1309  0.8286  0.0225  -6.1891   0.0000   0.0000   0.0000  -0.0422
  -9.900  -0.4705   0.02153   0.01651  -0.1310  0.8271  0.0227  -6.1136   0.0000   0.0000   0.0000  -0.0480
  -9.800  -0.4609   0.02115   0.01605  -0.1311  0.8256  0.0228  -6.0353   0.0000   0.0000   0.0000  -0.0542
  -9.700  -0.4510   0.02082   0.01565  -0.1312  0.8242  0.0229  -5.9542   0.0000   0.0000   0.0000  -0.0607
  -9.600  -0.4410   0.02053   0.01528  -0.1313  0.8229  0.0230  -5.8714   0.0000   0.0000   0.0000  -0.0677
  -9.500  -0.4336   0.01948   0.01414  -0.1314  0.8216  0.0233  -5.8255   0.0000   0.0000   0.0000  -0.0730
  -9.400  -0.4243   0.01899   0.01361  -0.1315  0.8205  0.0235  -5.7477   0.0000   0.0000   0.0000  -0.0799
  -9.300  -0.4143   0.01866   0.01325  -0.1315  0.8194  0.0237  -5.6614   0.0000   0.0000   0.0000  -0.0877
  -9.200  -0.4040   0.01838   0.01296  -0.1316  0.8180  0.0239  -5.5722   0.0000   0.0000   0.0000  -0.0962
  -9.100  -0.3936   0.01814   0.01270  -0.1317  0.8166  0.0241  -5.4823   0.0000   0.0000   0.0000  -0.1052
  -9.000  -0.3831   0.01791   0.01245  -0.1318  0.8152  0.0243  -5.3925   0.0000   0.0000   0.0000  -0.1147
  -8.900  -0.3725   0.01770   0.01221  -0.1318  0.8140  0.0245  -5.3025   0.0000   0.0000   0.0000  -0.1249
  -8.800  -0.3619   0.01749   0.01197  -0.1319  0.8128  0.0247  -5.2130   0.0000   0.0000   0.0000  -0.1357
  -8.700  -0.3513   0.01729   0.01173  -0.1320  0.8117  0.0250  -5.1248   0.0000   0.0000   0.0000  -0.1472
  -8.600  -0.3406   0.01709   0.01147  -0.1320  0.8107  0.0252  -5.0379   0.0000   0.0000   0.0000  -0.1595
  -8.500  -0.3299   0.01687   0.01122  -0.1321  0.8094  0.0255  -4.9522   0.0000   0.0000   0.0000  -0.1726
  -8.400  -0.3192   0.01664   0.01096  -0.1322  0.8080  0.0258  -4.8682   0.0000   0.0000   0.0000  -0.1866
  -8.300  -0.3085   0.01641   0.01069  -0.1322  0.8066  0.0261  -4.7854   0.0000   0.0000   0.0000  -0.2016
  -8.200  -0.2977   0.01619   0.01041  -0.1323  0.8054  0.0263  -4.7036   0.0000   0.0000   0.0000  -0.2177
  -8.100  -0.2868   0.01597   0.01015  -0.1323  0.8042  0.0265  -4.6247   0.0000   0.0000   0.0000  -0.2352
  -8.000  -0.2759   0.01579   0.00991  -0.1324  0.8030  0.0267  -4.5494   0.0000   0.0000   0.0000  -0.2542
  -7.900  -0.2649   0.01563   0.00970  -0.1324  0.8020  0.0268  -4.4730   0.0000   0.0000   0.0000  -0.2749
  -7.800  -0.2552   0.01506   0.00908  -0.1325  0.8010  0.0272  -4.4154   0.0000   0.0000   0.0000  -0.2945
  -7.700  -0.2447   0.01474   0.00876  -0.1325  0.7996  0.0275  -4.3429   0.0000   0.0000   0.0000  -0.3176
  -7.600  -0.2339   0.01452   0.00854  -0.1326  0.7983  0.0278  -4.2655   0.0000   0.0000   0.0000  -0.3436
  -7.500  -0.2230   0.01435   0.00836  -0.1327  0.7970  0.0281  -4.1871   0.0000   0.0000   0.0000  -0.3726
  -7.400  -0.2120   0.01418   0.00818  -0.1327  0.7957  0.0284  -4.1090   0.0000   0.0000   0.0000  -0.4048
  -7.300  -0.2009   0.01403   0.00801  -0.1328  0.7946  0.0287  -4.0318   0.0000   0.0000   0.0000  -0.4407
  -7.200  -0.1898   0.01387   0.00783  -0.1329  0.7935  0.0291  -3.9557   0.0000   0.0000   0.0000  -0.4808
  -7.100  -0.1787   0.01372   0.00764  -0.1329  0.7924  0.0294  -3.8806   0.0000   0.0000   0.0000  -0.5261
  -7.000  -0.1675   0.01357   0.00745  -0.1330  0.7915  0.0298  -3.8065   0.0000   0.0000   0.0000  -0.5775
  -6.900  -0.1563   0.01342   0.00728  -0.1331  0.7901  0.0302  -3.7329   0.0000   0.0000   0.0000  -0.6363
  -6.800  -0.1451   0.01329   0.00713  -0.1331  0.7888  0.0306  -3.6588   0.0000   0.0000   0.0000  -0.7048
  -6.700  -0.1337   0.01320   0.00700  -0.1332  0.7875  0.0309  -3.5840   0.0000   0.0000   0.0000  -0.7856
  -6.600  -0.1230   0.01291   0.00670  -0.1332  0.7862  0.0314  -3.5211   0.0000   0.0000   0.0000  -0.8758
  -6.500  -0.1121   0.01267   0.00646  -0.1333  0.7850  0.0319  -3.4566   0.0000   0.0000   0.0000  -0.9844
  -6.400  -0.1010   0.01253   0.00631  -0.1334  0.7839  0.0324  -3.3877   0.0000   0.0000   0.0000  -1.1210
  -6.300  -0.0897   0.01241   0.00617  -0.1335  0.7829  0.0328  -3.3192   0.0000   0.0000   0.0000  -1.2932
  -6.200  -0.0783   0.01230   0.00604  -0.1336  0.7820  0.0333  -3.2522   0.0000   0.0000   0.0000  -1.5160
  -6.100  -0.0671   0.01218   0.00591  -0.1336  0.7807  0.0339  -3.1867   0.0000   0.0000   0.0000  -1.8126
  -6.000  -0.0558   0.01206   0.00578  -0.1337  0.7793  0.0344  -3.1221   0.0000   0.0000   0.0000  -2.2306
  -5.900  -0.0444   0.01195   0.00565  -0.1338  0.7780  0.0349  -3.0578   0.0000   0.0000   0.0000  -2.8658
  -5.800  -0.0329   0.01186   0.00553  -0.1338  0.7767  0.0354  -2.9933   0.0000   0.0000   0.0000  -3.9481
  -5.700  -0.0219   0.01163   0.00529  -0.1339  0.7755  0.0360  -2.9339   0.0000   0.0000   0.0000  -6.0531
  -5.600  -0.0107   0.01146   0.00512  -0.1340  0.7744  0.0367  -2.8701   0.0000   0.0000   0.0000  -12.6227
  -5.500   0.0007   0.01136   0.00501  -0.1341  0.7734  0.0373  -2.8046   0.0000   0.0000   0.0000  212.6381
  -5.400   0.0121   0.01127   0.00490  -0.1342  0.7724  0.0380  -2.7396   0.0000   0.0000   0.0000  11.6676
  -5.300   0.0235   0.01118   0.00480  -0.1342  0.7712  0.0388  -2.6759   0.0000   0.0000   0.0000   6.1274
  -5.200   0.0350   0.01109   0.00470  -0.1343  0.7698  0.0395  -2.6130   0.0000   0.0000   0.0000   4.2040
  -5.100   0.0465   0.01102   0.00462  -0.1344  0.7684  0.0402  -2.5500   0.0000   0.0000   0.0000   3.2231
  -5.000   0.0576   0.01083   0.00443  -0.1345  0.7672  0.0412  -2.4903   0.0000   0.0000   0.0000   2.6475
  -4.900   0.0691   0.01072   0.00433  -0.1346  0.7659  0.0421  -2.4269   0.0000   0.0000   0.0000   2.2513
  -4.800   0.0806   0.01065   0.00424  -0.1347  0.7648  0.0431  -2.3637   0.0000   0.0000   0.0000   1.9654
  -4.700   0.0921   0.01058   0.00415  -0.1348  0.7638  0.0441  -2.3031   0.0000   0.0000   0.0000   1.7502
  -4.600   0.1038   0.01053   0.00407  -0.1348  0.7628  0.0451  -2.2472   0.0000   0.0000   0.0000   1.5822
  -4.500   0.1151   0.01038   0.00393  -0.1349  0.7616  0.0462  -2.1939   0.0000   0.0000   0.0000   1.4511
  -4.400   0.1265   0.01028   0.00384  -0.1350  0.7601  0.0474  -2.1385   0.0000   0.0000   0.0000   1.3430
  -4.300   0.1380   0.01020   0.00377  -0.1351  0.7588  0.0486  -2.0831   0.0000   0.0000   0.0000   1.2519
  -4.200   0.1495   0.01013   0.00369  -0.1352  0.7575  0.0499  -2.0286   0.0000   0.0000   0.0000   1.1745
  -4.100   0.1610   0.01004   0.00359  -0.1353  0.7562  0.0512  -1.9752   0.0000   0.0000   0.0000   1.1084
  -4.000   0.1725   0.00994   0.00349  -0.1354  0.7550  0.0529  -1.9210   0.0000   0.0000   0.0000   1.0513
  -3.900   0.1841   0.00988   0.00342  -0.1355  0.7539  0.0547  -1.8666   0.0000   0.0000   0.0000   1.0009
  -3.800   0.1958   0.00983   0.00335  -0.1356  0.7528  0.0565  -1.8131   0.0000   0.0000   0.0000   0.9562
  -3.700   0.2072   0.00972   0.00327  -0.1357  0.7516  0.0588  -1.7603   0.0000   0.0000   0.0000   0.9173
  -3.600   0.2187   0.00966   0.00321  -0.1358  0.7501  0.0613  -1.7077   0.0000   0.0000   0.0000   0.8822
  -3.500   0.2302   0.00957   0.00313  -0.1359  0.7486  0.0641  -1.6559   0.0000   0.0000   0.0000   0.8507
  -3.400   0.2418   0.00949   0.00307  -0.1360  0.7472  0.0675  -1.6040   0.0000   0.0000   0.0000   0.8221
  -3.300   0.2533   0.00941   0.00300  -0.1361  0.7459  0.0714  -1.5526   0.0000   0.0000   0.0000   0.7961
  -3.200   0.2649   0.00933   0.00293  -0.1362  0.7447  0.0763  -1.5014   0.0000   0.0000   0.0000   0.7723
  -3.100   0.2765   0.00926   0.00287  -0.1363  0.7436  0.0823  -1.4505   0.0000   0.0000   0.0000   0.7504
  -3.000   0.2881   0.00918   0.00281  -0.1364  0.7425  0.0896  -1.3999   0.0000   0.0000   0.0000   0.7304
  -2.900   0.2995   0.00909   0.00277  -0.1365  0.7410  0.0981  -1.3501   0.0000   0.0000   0.0000   0.7121
  -2.800   0.3110   0.00901   0.00272  -0.1366  0.7395  0.1079  -1.3019   0.0000   0.0000   0.0000   0.6952
  -2.700   0.3225   0.00893   0.00268  -0.1367  0.7380  0.1188  -1.2563   0.0000   0.0000   0.0000   0.6793
  -2.600   0.3340   0.00885   0.00264  -0.1368  0.7365  0.1303  -1.2110   0.0000   0.0000   0.0000   0.6646
  -2.500   0.3455   0.00877   0.00260  -0.1369  0.7352  0.1425  -1.1658   0.0000   0.0000   0.0000   0.6508
  -2.400   0.3571   0.00871   0.00256  -0.1370  0.7339  0.1545  -1.1209   0.0000   0.0000   0.0000   0.6379
  -2.300   0.3687   0.00865   0.00253  -0.1372  0.7327  0.1664  -1.0763   0.0000   0.0000   0.0000   0.6258
  -2.200   0.3802   0.00859   0.00251  -0.1373  0.7313  0.1782  -1.0323   0.0000   0.0000   0.0000   0.6144
  -2.100   0.3917   0.00853   0.00249  -0.1374  0.7296  0.1899  -0.9888   0.0000   0.0000   0.0000   0.6038
  -2.000   0.4032   0.00847   0.00247  -0.1375  0.7280  0.2018  -0.9456   0.0000   0.0000   0.0000   0.5937
  -1.900   0.4147   0.00841   0.00244  -0.1376  0.7265  0.2144  -0.9027   0.0000   0.0000   0.0000   0.5842
  -1.800   0.4263   0.00835   0.00242  -0.1377  0.7251  0.2284  -0.8602   0.0000   0.0000   0.0000   0.5752
  -1.700   0.4379   0.00829   0.00239  -0.1378  0.7238  0.2431  -0.8211   0.0000   0.0000   0.0000   0.5666
  -1.600   0.4495   0.00825   0.00237  -0.1379  0.7225  0.2574  -0.7825   0.0000   0.0000   0.0000   0.5585
  -1.500   0.4610   0.00819   0.00236  -0.1380  0.7209  0.2718  -0.7880   0.0000   0.0000   0.0000   0.5508
  -1.400   0.4724   0.00813   0.00235  -0.1381  0.7192  0.2879  -0.7952   0.0000   0.0000   0.0000   0.5436
  -1.300   0.4839   0.00806   0.00234  -0.1382  0.7175  0.3061  -0.8025   0.0000   0.0000   0.0000   0.5366
  -1.200   0.4954   0.00799   0.00233  -0.1384  0.7159  0.3264  -0.8098   0.0000   0.0000   0.0000   0.5300
  -1.100   0.5069   0.00793   0.00231  -0.1385  0.7144  0.3475  -0.8172   0.0000   0.0000   0.0000   0.5237
  -1.000   0.5184   0.00786   0.00230  -0.1386  0.7131  0.3701  -0.8248   0.0000   0.0000   0.0000   0.5176
  -0.900   0.5300   0.00780   0.00229  -0.1387  0.7117  0.3948  -0.8324   0.0000   0.0000   0.0000   0.5118
  -0.800   0.5413   0.00771   0.00230  -0.1388  0.7099  0.4223  -0.8402   0.0000   0.0000   0.0000   0.5063
  -0.700   0.5526   0.00763   0.00230  -0.1389  0.7081  0.4501  -0.8480   0.0000   0.0000   0.0000   0.5010
  -0.600   0.5640   0.00755   0.00231  -0.1390  0.7063  0.4803  -0.8560   0.0000   0.0000   0.0000   0.4960
  -0.500   0.5754   0.00748   0.00232  -0.1391  0.7047  0.5115  -0.8641   0.0000   0.0000   0.0000   0.4911
  -0.400   0.5868   0.00741   0.00232  -0.1392  0.7032  0.5415  -0.8723   0.0000   0.0000   0.0000   0.4863
  -0.300   0.5982   0.00737   0.00232  -0.1392  0.7018  0.5679  -0.8805   0.0000   0.0000   0.0000   0.4817
  -0.200   0.6094   0.00731   0.00234  -0.1393  0.7000  0.5928  -0.8886   0.0000   0.0000   0.0000   0.4773
  -0.100   0.6206   0.00725   0.00236  -0.1393  0.6980  0.6168  -0.8969   0.0000   0.0000   0.0000   0.4731
   0.000   0.6318   0.00720   0.00238  -0.1393  0.6962  0.6427  -0.9053   0.0000   0.0000   0.0000   0.4690
   0.100   0.6431   0.00717   0.00240  -0.1393  0.6944  0.6661  -0.9141   0.0000   0.0000   0.0000   0.4650
   0.200   0.6544   0.00714   0.00241  -0.1393  0.6929  0.6857  -0.9229   0.0000   0.0000   0.0000   0.4611
   0.300   0.6657   0.00713   0.00241  -0.1393  0.6914  0.7029  -0.9319   0.0000   0.0000   0.0000   0.4573
   0.400   0.6768   0.00711   0.00244  -0.1393  0.6893  0.7187  -0.9408   0.0000   0.0000   0.0000   0.4537
   0.500   0.6880   0.00708   0.00246  -0.1393  0.6872  0.7334  -0.9498   0.0000   0.0000   0.0000   0.4502
   0.600   0.6990   0.00706   0.00247  -0.1392  0.6853  0.7476  -0.9588   0.0000   0.0000   0.0000   0.4468
   0.700   0.7101   0.00704   0.00248  -0.1392  0.6834  0.7619  -0.9679   0.0000   0.0000   0.0000   0.4434
   0.800   0.7212   0.00704   0.00249  -0.1391  0.6818  0.7757  -0.9772   0.0000   0.0000   0.0000   0.4402
   0.900   0.7322   0.00703   0.00250  -0.1391  0.6800  0.7888  -0.9867   0.0000   0.0000   0.0000   0.4371
   1.000   0.7430   0.00700   0.00253  -0.1390  0.6778  0.8018  -0.9963   0.0000   0.0000   0.0000   0.4341
   1.100   0.7538   0.00698   0.00255  -0.1389  0.6756  0.8152  -1.0059   0.0000   0.0000   0.0000   0.4311
   1.200   0.7645   0.00697   0.00256  -0.1387  0.6736  0.8294  -1.0156   0.0000   0.0000   0.0000   0.4282
   1.300   0.7751   0.00696   0.00257  -0.1385  0.6717  0.8437  -1.0255   0.0000   0.0000   0.0000   0.4253
   1.400   0.7854   0.00695   0.00258  -0.1383  0.6699  0.8577  -1.0352   0.0000   0.0000   0.0000   0.4226
   1.500   0.7953   0.00692   0.00260  -0.1380  0.6675  0.8733  -1.0446   0.0000   0.0000   0.0000   0.4198
   1.700   0.8141   0.00686   0.00262  -0.1370  0.6631  0.9109  -1.0634   0.0000   0.0000   0.0000   0.4144
   1.800   0.8233   0.00683   0.00262  -0.1365  0.6611  0.9351  -1.0731   0.0000   0.0000   0.0000   0.4117
   1.900   0.8364   0.00680   0.00260  -0.1368  0.6591  0.9649  -1.0855   0.0000   0.0000   0.0000   0.4094
   2.000   0.8518   0.00679   0.00260  -0.1378  0.6565  1.0000  -1.0992   0.0000   0.0000   0.0000   0.4074
   2.100   0.8633   0.00681   0.00261  -0.1379  0.6540  1.0000  -1.1106   0.0000   0.0000   0.0000   0.4053
   2.200   0.8747   0.00684   0.00262  -0.1379  0.6517  1.0000  -1.1222   0.0000   0.0000   0.0000   0.4031
   2.300   0.8861   0.00688   0.00263  -0.1380  0.6496  1.0000  -1.1338   0.0000   0.0000   0.0000   0.4011
   2.400   0.8974   0.00691   0.00265  -0.1381  0.6470  1.0000  -1.1455   0.0000   0.0000   0.0000   0.3991
   2.500   0.9088   0.00693   0.00267  -0.1382  0.6443  1.0000  -1.1572   0.0000   0.0000   0.0000   0.3971
   2.600   0.9201   0.00697   0.00269  -0.1382  0.6417  1.0000  -1.1692   0.0000   0.0000   0.0000   0.3951
   2.700   0.9313   0.00701   0.00271  -0.1383  0.6394  1.0000  -1.1815   0.0000   0.0000   0.0000   0.3933
   2.800   0.9426   0.00704   0.00273  -0.1383  0.6368  1.0000  -1.1940   0.0000   0.0000   0.0000   0.3914
   2.900   0.9539   0.00707   0.00276  -0.1384  0.6339  1.0000  -1.2068   0.0000   0.0000   0.0000   0.3896
   3.000   0.9651   0.00710   0.00278  -0.1384  0.6311  1.0000  -1.2195   0.0000   0.0000   0.0000   0.3878
   3.100   0.9762   0.00715   0.00280  -0.1384  0.6286  1.0000  -1.2321   0.0000   0.0000   0.0000   0.3861
   3.200   0.9874   0.00718   0.00284  -0.1385  0.6257  1.0000  -1.2452   0.0000   0.0000   0.0000   0.3844
   3.300   0.9985   0.00722   0.00287  -0.1385  0.6225  1.0000  -1.2583   0.0000   0.0000   0.0000   0.3827
   3.400   1.0095   0.00726   0.00290  -0.1385  0.6195  1.0000  -1.2715   0.0000   0.0000   0.0000   0.3811
   3.500   1.0205   0.00731   0.00292  -0.1385  0.6168  1.0000  -1.2858   0.0000   0.0000   0.0000   0.3795
   3.600   1.0316   0.00734   0.00296  -0.1385  0.6133  1.0000  -1.3002   0.0000   0.0000   0.0000   0.3779
   3.700   1.0426   0.00739   0.00299  -0.1385  0.6100  1.0000  -1.3146   0.0000   0.0000   0.0000   0.3764
   3.800   1.0534   0.00744   0.00303  -0.1385  0.6070  1.0000  -1.3293   0.0000   0.0000   0.0000   0.3749
   3.900   1.0644   0.00748   0.00307  -0.1385  0.6033  1.0000  -1.3442   0.0000   0.0000   0.0000   0.3734
   4.000   1.0753   0.00753   0.00311  -0.1385  0.5996  1.0000  -1.3591   0.0000   0.0000   0.0000   0.3719
   4.100   1.0859   0.00759   0.00315  -0.1384  0.5961  1.0000  -1.3745   0.0000   0.0000   0.0000   0.3705
   4.200   1.0968   0.00764   0.00319  -0.1384  0.5921  1.0000  -1.3909   0.0000   0.0000   0.0000   0.3690
   4.300   1.1075   0.00769   0.00323  -0.1384  0.5881  1.0000  -1.4072   0.0000   0.0000   0.0000   0.3677
   4.400   1.1179   0.00776   0.00328  -0.1383  0.5845  1.0000  -1.4233   0.0000   0.0000   0.0000   0.3663
   4.500   1.1288   0.00781   0.00333  -0.1382  0.5803  1.0000  -1.4403   0.0000   0.0000   0.0000   0.3649
   4.600   1.1392   0.00787   0.00338  -0.1382  0.5761  1.0000  -1.4571   0.0000   0.0000   0.0000   0.3636
   4.700   1.1497   0.00794   0.00343  -0.1381  0.5720  1.0000  -1.4739   0.0000   0.0000   0.0000   0.3623
   4.800   1.1602   0.00800   0.00349  -0.1380  0.5673  1.0000  -1.4909   0.0000   0.0000   0.0000   0.3610
   4.900   1.1703   0.00809   0.00354  -0.1378  0.5629  1.0000  -1.5092   0.0000   0.0000   0.0000   0.3597
   5.000   1.1809   0.00814   0.00360  -0.1378  0.5579  1.0000  -1.5281   0.0000   0.0000   0.0000   0.3585
   5.100   1.1909   0.00823   0.00366  -0.1376  0.5531  1.0000  -1.5464   0.0000   0.0000   0.0000   0.3572
   5.200   1.2012   0.00830   0.00373  -0.1375  0.5481  1.0000  -1.5658   0.0000   0.0000   0.0000   0.3560
   5.300   1.2112   0.00839   0.00379  -0.1373  0.5430  1.0000  -1.5849   0.0000   0.0000   0.0000   0.3548
   5.400   1.2213   0.00847   0.00386  -0.1372  0.5379  1.0000  -1.6041   0.0000   0.0000   0.0000   0.3536
   5.500   1.2311   0.00856   0.00394  -0.1370  0.5323  1.0000  -1.6254   0.0000   0.0000   0.0000   0.3524
   5.600   1.2410   0.00866   0.00402  -0.1368  0.5267  1.0000  -1.6467   0.0000   0.0000   0.0000   0.3512
   5.700   1.2505   0.00876   0.00410  -0.1366  0.5207  1.0000  -1.6682   0.0000   0.0000   0.0000   0.3500
   5.800   1.2602   0.00886   0.00418  -0.1364  0.5146  1.0000  -1.6920   0.0000   0.0000   0.0000   0.3489
   6.000   1.2790   0.00909   0.00436  -0.1358  0.5020  1.0000  -1.7418   0.0000   0.0000   0.0000   0.3466
   6.100   1.2881   0.00921   0.00446  -0.1355  0.4957  1.0000  -1.7681   0.0000   0.0000   0.0000   0.3455
   6.200   1.2972   0.00933   0.00456  -0.1352  0.4888  1.0000  -1.7976   0.0000   0.0000   0.0000   0.3443
   6.300   1.3062   0.00946   0.00466  -0.1349  0.4820  1.0000  -1.8270   0.0000   0.0000   0.0000   0.3432
   6.400   1.3146   0.00962   0.00478  -0.1345  0.4750  1.0000  -1.8557   0.0000   0.0000   0.0000   0.3421
   6.500   1.3235   0.00975   0.00489  -0.1341  0.4675  1.0000  -1.8858   0.0000   0.0000   0.0000   0.3410
   6.600   1.3320   0.00990   0.00501  -0.1337  0.4603  1.0000  -1.9162   0.0000   0.0000   0.0000   0.3399
   6.700   1.3399   0.01007   0.00514  -0.1332  0.4529  1.0000  -1.9460   0.0000   0.0000   0.0000   0.3388
   6.800   1.3483   0.01022   0.00527  -0.1328  0.4451  1.0000  -1.9772   0.0000   0.0000   0.0000   0.3377
   6.900   1.3563   0.01039   0.00540  -0.1323  0.4374  1.0000  -2.0088   0.0000   0.0000   0.0000   0.3366
   7.000   1.3638   0.01057   0.00555  -0.1318  0.4299  1.0000  -2.0397   0.0000   0.0000   0.0000   0.3355
   7.100   1.3715   0.01075   0.00569  -0.1312  0.4222  1.0000  -2.0723   0.0000   0.0000   0.0000   0.3345
   7.200   1.3792   0.01092   0.00584  -0.1307  0.4147  1.0000  -2.1054   0.0000   0.0000   0.0000   0.3334
   7.300   1.3864   0.01111   0.00600  -0.1301  0.4074  1.0000  -2.1377   0.0000   0.0000   0.0000   0.3323
   7.400   1.3934   0.01131   0.00616  -0.1295  0.3999  1.0000  -2.1696   0.0000   0.0000   0.0000   0.3312
   7.500   1.4002   0.01148   0.00631  -0.1288  0.3924  1.0000  -2.2015   0.0000   0.0000   0.0000   0.3301
   7.600   1.4061   0.01168   0.00648  -0.1279  0.3853  1.0000  -2.2318   0.0000   0.0000   0.0000   0.3290
   7.700   1.4118   0.01190   0.00666  -0.1270  0.3781  1.0000  -2.2620   0.0000   0.0000   0.0000   0.3279
   7.800   1.4184   0.01209   0.00684  -0.1263  0.3709  1.0000  -2.2938   0.0000   0.0000   0.0000   0.3268
   7.900   1.4244   0.01231   0.00703  -0.1256  0.3643  1.0000  -2.3247   0.0000   0.0000   0.0000   0.3257
   8.000   1.4304   0.01254   0.00722  -0.1248  0.3576  1.0000  -2.3557   0.0000   0.0000   0.0000   0.3246
   8.100   1.4368   0.01275   0.00742  -0.1241  0.3510  1.0000  -2.3975   0.0000   0.0000   0.0000   0.3236
   8.200   1.4424   0.01300   0.00764  -0.1233  0.3446  1.0000  -2.4405   0.0000   0.0000   0.0000   0.3226
   8.300   1.4486   0.01324   0.00786  -0.1226  0.3379  1.0000  -2.4850   0.0000   0.0000   0.0000   0.3215
   8.400   1.4545   0.01349   0.00808  -0.1219  0.3315  1.0000  -2.5291   0.0000   0.0000   0.0000   0.3205
   8.500   1.4596   0.01378   0.00834  -0.1210  0.3249  1.0000  -2.5713   0.0000   0.0000   0.0000   0.3195
   8.600   1.4655   0.01403   0.00858  -0.1203  0.3177  1.0000  -2.6160   0.0000   0.0000   0.0000   0.3185
   8.700   1.4709   0.01432   0.00884  -0.1196  0.3110  1.0000  -2.6595   0.0000   0.0000   0.0000   0.3176
   8.800   1.4757   0.01465   0.00913  -0.1187  0.3042  1.0000  -2.7016   0.0000   0.0000   0.0000   0.3166
   8.900   1.4813   0.01494   0.00940  -0.1180  0.2971  1.0000  -2.7460   0.0000   0.0000   0.0000   0.3156
   9.000   1.4865   0.01526   0.00969  -0.1173  0.2904  1.0000  -2.7895   0.0000   0.0000   0.0000   0.3147
   9.100   1.4911   0.01561   0.01001  -0.1165  0.2836  1.0000  -2.8317   0.0000   0.0000   0.0000   0.3137
   9.200   1.4962   0.01595   0.01032  -0.1157  0.2764  1.0000  -2.8753   0.0000   0.0000   0.0000   0.3128
   9.300   1.5011   0.01629   0.01064  -0.1150  0.2695  1.0000  -2.9188   0.0000   0.0000   0.0000   0.3119
   9.400   1.5056   0.01667   0.01099  -0.1142  0.2627  1.0000  -2.9612   0.0000   0.0000   0.0000   0.3109
   9.500   1.5100   0.01706   0.01135  -0.1134  0.2558  1.0000  -3.0035   0.0000   0.0000   0.0000   0.3100
   9.600   1.5149   0.01743   0.01169  -0.1127  0.2490  1.0000  -3.0475   0.0000   0.0000   0.0000   0.3092
   9.700   1.5193   0.01782   0.01205  -0.1120  0.2425  1.0000  -3.0904   0.0000   0.0000   0.0000   0.3083
   9.900   1.5283   0.01862   0.01280  -0.1105  0.2299  1.0000  -3.1770   0.0000   0.0000   0.0000   0.3065
  10.000   1.5328   0.01902   0.01318  -0.1098  0.2242  1.0000  -3.2205   0.0000   0.0000   0.0000   0.3057
  10.100   1.5369   0.01945   0.01359  -0.1091  0.2184  1.0000  -3.2631   0.0000   0.0000   0.0000   0.3048
  10.200   1.5416   0.01985   0.01397  -0.1084  0.2126  1.0000  -3.3077   0.0000   0.0000   0.0000   0.3040
  10.300   1.5456   0.02030   0.01439  -0.1077  0.2070  1.0000  -3.3503   0.0000   0.0000   0.0000   0.3031
  10.400   1.5496   0.02075   0.01482  -0.1069  0.2010  1.0000  -3.3930   0.0000   0.0000   0.0000   0.3023
  10.500   1.5538   0.02120   0.01525  -0.1062  0.1952  1.0000  -3.4365   0.0000   0.0000   0.0000   0.3015
  10.600   1.5574   0.02168   0.01571  -0.1055  0.1895  1.0000  -3.4784   0.0000   0.0000   0.0000   0.3007
  10.700   1.5608   0.02218   0.01618  -0.1047  0.1835  1.0000  -3.5199   0.0000   0.0000   0.0000   0.2998
  10.800   1.5645   0.02266   0.01664  -0.1040  0.1776  1.0000  -3.5625   0.0000   0.0000   0.0000   0.2990
  10.900   1.5677   0.02318   0.01714  -0.1032  0.1719  1.0000  -3.6036   0.0000   0.0000   0.0000   0.2982
  11.100   1.5741   0.02423   0.01814  -0.1017  0.1607  1.0000  -3.6866   0.0000   0.0000   0.0000   0.2966
  11.200   1.5773   0.02477   0.01866  -0.1010  0.1556  1.0000  -3.7280   0.0000   0.0000   0.0000   0.2959
  11.300   1.5800   0.02534   0.01920  -0.1002  0.1505  1.0000  -3.7684   0.0000   0.0000   0.0000   0.2951
  11.400   1.5835   0.02586   0.01971  -0.0996  0.1454  1.0000  -3.8110   0.0000   0.0000   0.0000   0.2943
  11.500   1.5862   0.02643   0.02026  -0.0988  0.1406  1.0000  -3.8514   0.0000   0.0000   0.0000   0.2935
  11.600   1.5888   0.02702   0.02082  -0.0981  0.1356  1.0000  -3.8918   0.0000   0.0000   0.0000   0.2928
  11.700   1.5919   0.02758   0.02137  -0.0974  0.1309  1.0000  -3.9334   0.0000   0.0000   0.0000   0.2920
  11.800   1.5943   0.02819   0.02196  -0.0966  0.1265  1.0000  -3.9732   0.0000   0.0000   0.0000   0.2913
  11.900   1.5972   0.02876   0.02252  -0.0959  0.1221  1.0000  -4.0149   0.0000   0.0000   0.0000   0.2905
  12.000   1.5999   0.02936   0.02311  -0.0952  0.1181  1.0000  -4.0558   0.0000   0.0000   0.0000   0.2898
  12.100   1.6024   0.02998   0.02371  -0.0945  0.1140  1.0000  -4.0960   0.0000   0.0000   0.0000   0.2891
  12.200   1.6052   0.03058   0.02430  -0.0939  0.1101  1.0000  -4.1376   0.0000   0.0000   0.0000   0.2884
  12.400   1.6101   0.03183   0.02553  -0.0925  0.1029  1.0000  -4.2186   0.0000   0.0000   0.0000   0.2869
  12.600   1.6149   0.03311   0.02681  -0.0912  0.0962  1.0000  -4.2996   0.0000   0.0000   0.0000   0.2856
  12.800   1.6196   0.03444   0.02812  -0.0899  0.0900  1.0000  -4.3807   0.0000   0.0000   0.0000   0.2842
  12.900   1.6214   0.03516   0.02884  -0.0893  0.0871  1.0000  -4.4193   0.0000   0.0000   0.0000   0.2835
  13.000   1.6243   0.03581   0.02949  -0.0887  0.0843  1.0000  -4.4616   0.0000   0.0000   0.0000   0.2829
  13.100   1.6263   0.03652   0.03020  -0.0881  0.0816  1.0000  -4.5036   0.0000   0.0000   0.0000   0.2822
  13.200   1.6287   0.03722   0.03089  -0.0875  0.0792  1.0000  -4.5472   0.0000   0.0000   0.0000   0.2816
  13.300   1.6309   0.03792   0.03160  -0.0870  0.0767  1.0000  -4.5906   0.0000   0.0000   0.0000   0.2810
  13.400   1.6325   0.03869   0.03236  -0.0864  0.0746  1.0000  -4.6316   0.0000   0.0000   0.0000   0.2803
  13.500   1.6353   0.03936   0.03305  -0.0859  0.0724  1.0000  -4.6769   0.0000   0.0000   0.0000   0.2797
  13.600   1.6371   0.04012   0.03381  -0.0853  0.0703  1.0000  -4.7190   0.0000   0.0000   0.0000   0.2791
  13.700   1.6390   0.04089   0.03458  -0.0848  0.0684  1.0000  -4.7615   0.0000   0.0000   0.0000   0.2785
  13.800   1.6416   0.04160   0.03531  -0.0843  0.0665  1.0000  -4.8063   0.0000   0.0000   0.0000   0.2779
  13.900   1.6433   0.04240   0.03610  -0.0837  0.0647  1.0000  -4.8482   0.0000   0.0000   0.0000   0.2773
  14.000   1.6450   0.04320   0.03691  -0.0832  0.0631  1.0000  -4.8902   0.0000   0.0000   0.0000   0.2768
  14.100   1.6476   0.04393   0.03766  -0.0828  0.0614  1.0000  -4.9354   0.0000   0.0000   0.0000   0.2762
  14.200   1.6494   0.04474   0.03848  -0.0823  0.0599  1.0000  -4.9778   0.0000   0.0000   0.0000   0.2756
  14.400   1.6530   0.04638   0.04014  -0.0814  0.0571  1.0000  -5.0628   0.0000   0.0000   0.0000   0.2745
  14.500   1.6550   0.04718   0.04095  -0.0810  0.0557  1.0000  -5.1062   0.0000   0.0000   0.0000   0.2740
  14.600   1.6561   0.04807   0.04186  -0.0805  0.0544  1.0000  -5.1461   0.0000   0.0000   0.0000   0.2735
  14.700   1.6570   0.04899   0.04278  -0.0801  0.0532  1.0000  -5.1853   0.0000   0.0000   0.0000   0.2729
  14.800   1.6595   0.04977   0.04358  -0.0797  0.0520  1.0000  -5.2307   0.0000   0.0000   0.0000   0.2724
  14.900   1.6612   0.05062   0.04446  -0.0793  0.0508  1.0000  -5.2731   0.0000   0.0000   0.0000   0.2719
  15.000   1.6622   0.05155   0.04540  -0.0789  0.0497  1.0000  -5.3130   0.0000   0.0000   0.0000   0.2714
  15.200   1.6647   0.05340   0.04728  -0.0781  0.0476  1.0000  -5.3942   0.0000   0.0000   0.0000   0.2704
  15.300   1.6665   0.05427   0.04818  -0.0778  0.0465  1.0000  -5.4372   0.0000   0.0000   0.0000   0.2700
  15.400   1.6674   0.05525   0.04917  -0.0774  0.0455  1.0000  -5.4767   0.0000   0.0000   0.0000   0.2695
  15.500   1.6677   0.05630   0.05023  -0.0771  0.0445  1.0000  -5.5198   0.0000   0.0000   0.0000   0.2690
  15.600   1.6683   0.05732   0.05127  -0.0767  0.0436  1.0000  -5.5662   0.0000   0.0000   0.0000   0.2686
  15.700   1.6702   0.05822   0.05220  -0.0765  0.0426  1.0000  -5.6189   0.0000   0.0000   0.0000   0.2681
  15.800   1.6713   0.05918   0.05319  -0.0762  0.0416  1.0000  -5.6684   0.0000   0.0000   0.0000   0.2677
  15.900   1.6715   0.06027   0.05428  -0.0759  0.0407  1.0000  -5.7134   0.0000   0.0000   0.0000   0.2673
  16.000   1.6708   0.06144   0.05547  -0.0755  0.0399  1.0000  -5.7545   0.0000   0.0000   0.0000   0.2669
  16.100   1.6714   0.06249   0.05654  -0.0753  0.0390  1.0000  -5.8012   0.0000   0.0000   0.0000   0.2664
  16.200   1.6726   0.06348   0.05756  -0.0750  0.0381  1.0000  -5.8509   0.0000   0.0000   0.0000   0.2660
  16.300   1.6731   0.06455   0.05866  -0.0748  0.0372  1.0000  -5.8975   0.0000   0.0000   0.0000   0.2656
  16.400   1.6725   0.06576   0.05988  -0.0745  0.0364  1.0000  -5.9390   0.0000   0.0000   0.0000   0.2653
  16.500   1.6710   0.06707   0.06120  -0.0743  0.0356  1.0000  -5.9762   0.0000   0.0000   0.0000   0.2649
  16.600   1.6714   0.06819   0.06235  -0.0741  0.0348  1.0000  -6.0219   0.0000   0.0000   0.0000   0.2645
  16.700   1.6721   0.06928   0.06347  -0.0739  0.0339  1.0000  -6.0691   0.0000   0.0000   0.0000   0.2642
  16.800   1.6720   0.07046   0.06468  -0.0737  0.0331  1.0000  -6.1129   0.0000   0.0000   0.0000   0.2638
  16.900   1.6709   0.07177   0.06601  -0.0735  0.0324  1.0000  -6.1516   0.0000   0.0000   0.0000   0.2635
  17.000   1.6690   0.07318   0.06744  -0.0734  0.0318  1.0000  -6.1861   0.0000   0.0000   0.0000   0.2632
  17.100   1.6674   0.07458   0.06886  -0.0732  0.0312  1.0000  -6.2215   0.0000   0.0000   0.0000   0.2629
  17.200   1.6679   0.07571   0.07003  -0.0731  0.0305  1.0000  -6.2679   0.0000   0.0000   0.0000   0.2626
  17.300   1.6674   0.07698   0.07133  -0.0730  0.0298  1.0000  -6.3092   0.0000   0.0000   0.0000   0.2623
  17.400   1.6663   0.07832   0.07270  -0.0729  0.0292  1.0000  -6.3474   0.0000   0.0000   0.0000   0.2620
  17.500   1.6646   0.07974   0.07415  -0.0729  0.0287  1.0000  -6.3822   0.0000   0.0000   0.0000   0.2618
  17.600   1.6620   0.08128   0.07571  -0.0728  0.0282  1.0000  -6.4126   0.0000   0.0000   0.0000   0.2616
  17.700   1.6584   0.08297   0.07742  -0.0728  0.0278  1.0000  -6.4370   0.0000   0.0000   0.0000   0.2614
  17.800   1.6572   0.08437   0.07886  -0.0727  0.0273  1.0000  -6.4735   0.0000   0.0000   0.0000   0.2612
  17.900   1.6566   0.08569   0.08022  -0.0727  0.0269  1.0000  -6.5136   0.0000   0.0000   0.0000   0.2609
  18.000   1.6555   0.08709   0.08166  -0.0728  0.0265  1.0000  -6.5509   0.0000   0.0000   0.0000   0.2607
  18.100   1.6541   0.08853   0.08313  -0.0728  0.0261  1.0000  -6.5867   0.0000   0.0000   0.0000   0.2605
  18.200   1.6521   0.09007   0.08470  -0.0729  0.0257  1.0000  -6.6191   0.0000   0.0000   0.0000   0.2604
  18.300   1.6499   0.09163   0.08629  -0.0730  0.0254  1.0000  -6.6506   0.0000   0.0000   0.0000   0.2602
  18.400   1.6471   0.09329   0.08798  -0.0731  0.0251  1.0000  -6.6782   0.0000   0.0000   0.0000   0.2601
  18.500   1.6439   0.09501   0.08973  -0.0732  0.0248  1.0000  -6.7035   0.0000   0.0000   0.0000   0.2600
  18.600   1.6398   0.09687   0.09161  -0.0734  0.0245  1.0000  -6.7233   0.0000   0.0000   0.0000   0.2600
  18.700   1.6350   0.09885   0.09362  -0.0737  0.0242  1.0000  -6.7378   0.0000   0.0000   0.0000   0.2600
  18.800   1.6334   0.10037   0.09519  -0.0739  0.0240  1.0000  -6.7710   0.0000   0.0000   0.0000   0.2599
  18.900   1.6321   0.10185   0.09670  -0.0740  0.0237  1.0000  -6.8059   0.0000   0.0000   0.0000   0.2598
  19.000   1.6303   0.10339   0.09829  -0.0743  0.0235  1.0000  -6.8382   0.0000   0.0000   0.0000   0.2597
  19.100   1.6285   0.10494   0.09988  -0.0745  0.0232  1.0000  -6.8703   0.0000   0.0000   0.0000   0.2597
  19.200   1.6264   0.10655   0.10152  -0.0748  0.0229  1.0000  -6.9004   0.0000   0.0000   0.0000   0.2596
  19.300   1.6244   0.10814   0.10316  -0.0750  0.0227  1.0000  -6.9312   0.0000   0.0000   0.0000   0.2596
  19.400   1.6220   0.10982   0.10487  -0.0754  0.0224  1.0000  -6.9593   0.0000   0.0000   0.0000   0.2596
  19.500   1.6195   0.11150   0.10659  -0.0757  0.0222  1.0000  -6.9869   0.0000   0.0000   0.0000   0.2596
  19.600   1.6166   0.11327   0.10839  -0.0761  0.0220  1.0000  -7.0114   0.0000   0.0000   0.0000   0.2597
  19.700   1.6136   0.11506   0.11020  -0.0765  0.0218  1.0000  -7.0351   0.0000   0.0000   0.0000   0.2598
  19.800   1.6100   0.11695   0.11212  -0.0770  0.0216  1.0000  -7.0550   0.0000   0.0000   0.0000   0.2599
  19.900   1.6061   0.11889   0.11409  -0.0775  0.0214  1.0000  -7.0723   0.0000   0.0000   0.0000   0.2601
  20.000   1.6017   0.12092   0.11615  -0.0780  0.0212  1.0000  -7.0853   0.0000   0.0000   0.0000   0.2603


