xflr5 v6.57

 Calculated polar for: QX0023

 1 1 Reynolds number fixed          Mach number fixed         

 xtrf =   1.000 (top)        1.000 (bottom)
 Mach =   0.000     Re =     0.300 e 6     Ncrit =   9.000

  alpha     CL        CD       CDp       Cm    Top Xtr Bot Xtr   Cpmin    Chinge    XCp    
 ------- -------- --------- --------- -------- ------- ------- -------- --------- ---------
 -10.000  -0.1545   0.09707   0.09377  -0.0834  0.8986  0.0488  -1.7142   0.0000   0.0000   0.0000  -0.3350
  -9.700  -0.1685   0.08957   0.08628  -0.0900  0.8920  0.0510  -1.9724   0.0000   0.0000   0.0000  -0.3246
  -9.600  -0.1628   0.08898   0.08567  -0.0894  0.8904  0.0512  -1.9201   0.0000   0.0000   0.0000  -0.3407
  -9.500  -0.1578   0.08832   0.08501  -0.0890  0.8889  0.0514  -1.8797   0.0000   0.0000   0.0000  -0.3566
  -9.400  -0.1530   0.08759   0.08426  -0.0889  0.8873  0.0517  -1.8462   0.0000   0.0000   0.0000  -0.3743
  -9.300  -0.1485   0.08673   0.08341  -0.0891  0.8853  0.0521  -1.8204   0.0000   0.0000   0.0000  -0.3936
  -9.200  -0.1450   0.08577   0.08244  -0.0894  0.8835  0.0525  -1.8036   0.0000   0.0000   0.0000  -0.4106
  -9.100  -0.1423   0.08469   0.08135  -0.0898  0.8818  0.0530  -1.7960   0.0000   0.0000   0.0000  -0.4254
  -9.000  -0.1406   0.08346   0.08011  -0.0903  0.8803  0.0536  -1.7987   0.0000   0.0000   0.0000  -0.4373
  -8.900  -0.1398   0.08185   0.07851  -0.0917  0.8781  0.0546  -1.8215   0.0000   0.0000   0.0000  -0.4499
  -8.800  -0.1662   0.07428   0.07098  -0.1012  0.8742  0.0565  -2.1866   0.0000   0.0000   0.0000  -0.3966
  -8.700  -0.1598   0.07403   0.07071  -0.1001  0.8730  0.0567  -2.1232   0.0000   0.0000   0.0000  -0.4153
  -8.600  -0.1532   0.07379   0.07047  -0.0992  0.8718  0.0569  -2.0610   0.0000   0.0000   0.0000  -0.4371
  -8.500  -0.1463   0.07351   0.07018  -0.0986  0.8699  0.0572  -2.0017   0.0000   0.0000   0.0000  -0.4649
  -8.400  -0.1404   0.07305   0.06972  -0.0984  0.8682  0.0576  -1.9543   0.0000   0.0000   0.0000  -0.4924
  -8.300  -0.1357   0.07234   0.06900  -0.0985  0.8665  0.0582  -1.9225   0.0000   0.0000   0.0000  -0.5179
  -8.200  -0.1325   0.07131   0.06796  -0.0990  0.8650  0.0588  -1.9083   0.0000   0.0000   0.0000  -0.5398
  -8.100  -0.1311   0.06982   0.06647  -0.1002  0.8634  0.0597  -1.9174   0.0000   0.0000   0.0000  -0.5570
  -7.900  -0.1942   0.04187   0.03796  -0.1325  0.8552  0.0474  -3.0262   0.0000   0.0000   0.0000  -0.4628
  -7.800  -0.1875   0.04161   0.03763  -0.1334  0.8530  0.0518  -2.9598   0.0000   0.0000   0.0000  -0.4926
  -7.700  -0.1792   0.04125   0.03727  -0.1335  0.8513  0.0522  -2.8983   0.0000   0.0000   0.0000  -0.5269
  -7.600  -0.1703   0.04108   0.03711  -0.1335  0.8498  0.0529  -2.8290   0.0000   0.0000   0.0000  -0.5665
  -7.400  -0.1913   0.02369   0.01721  -0.1378  0.8459  0.0404  -3.6704   0.0000   0.0000   0.0000  -0.5019
  -7.300  -0.1819   0.02310   0.01664  -0.1379  0.8440  0.0408  -3.6121   0.0000   0.0000   0.0000  -0.5406
  -7.200  -0.1719   0.02277   0.01630  -0.1379  0.8425  0.0413  -3.5450   0.0000   0.0000   0.0000  -0.5865
  -7.100  -0.1615   0.02252   0.01607  -0.1380  0.8411  0.0418  -3.4753   0.0000   0.0000   0.0000  -0.6399
  -7.000  -0.1511   0.02221   0.01573  -0.1380  0.8399  0.0423  -3.4120   0.0000   0.0000   0.0000  -0.7006
  -6.900  -0.1407   0.02184   0.01528  -0.1380  0.8389  0.0429  -3.3557   0.0000   0.0000   0.0000  -0.7703
  -6.800  -0.1302   0.02141   0.01475  -0.1380  0.8380  0.0434  -3.3047   0.0000   0.0000   0.0000  -0.8516
  -6.700  -0.1202   0.02099   0.01424  -0.1380  0.8361  0.0439  -3.2583   0.0000   0.0000   0.0000  -0.9426
  -6.600  -0.1100   0.02057   0.01371  -0.1379  0.8344  0.0444  -3.2125   0.0000   0.0000   0.0000  -1.0522
  -6.500  -0.0995   0.02019   0.01320  -0.1379  0.8330  0.0449  -3.1655   0.0000   0.0000   0.0000  -1.1883
  -6.400  -0.0887   0.01987   0.01274  -0.1378  0.8317  0.0453  -3.1161   0.0000   0.0000   0.0000  -1.3610
  -6.300  -0.0785   0.01930   0.01219  -0.1378  0.8306  0.0459  -3.0600   0.0000   0.0000   0.0000  -1.5708
  -6.200  -0.0677   0.01897   0.01187  -0.1379  0.8296  0.0464  -2.9971   0.0000   0.0000   0.0000  -1.8586
  -6.100  -0.0568   0.01871   0.01158  -0.1379  0.8287  0.0470  -2.9410   0.0000   0.0000   0.0000  -2.2625
  -6.000  -0.0466   0.01850   0.01137  -0.1379  0.8267  0.0477  -2.8887   0.0000   0.0000   0.0000  -2.8136
  -5.900  -0.0359   0.01827   0.01112  -0.1378  0.8251  0.0485  -2.8364   0.0000   0.0000   0.0000  -3.7152
  -5.800  -0.0251   0.01805   0.01084  -0.1378  0.8237  0.0494  -2.7853   0.0000   0.0000   0.0000  -5.4269
  -5.700  -0.0140   0.01786   0.01055  -0.1378  0.8224  0.0503  -2.7361   0.0000   0.0000   0.0000  -9.9352
  -5.600  -0.0032   0.01751   0.01018  -0.1378  0.8214  0.0512  -2.6853   0.0000   0.0000   0.0000  -44.1801
  -5.500   0.0077   0.01725   0.00994  -0.1378  0.8204  0.0521  -2.6269   0.0000   0.0000   0.0000  18.6991
  -5.400   0.0187   0.01706   0.00975  -0.1378  0.8194  0.0530  -2.5698   0.0000   0.0000   0.0000   7.8282
  -5.300   0.0291   0.01690   0.00959  -0.1378  0.8174  0.0540  -2.5178   0.0000   0.0000   0.0000   5.1259
  -5.200   0.0399   0.01672   0.00938  -0.1378  0.8158  0.0550  -2.4671   0.0000   0.0000   0.0000   3.8064
  -5.100   0.0510   0.01656   0.00914  -0.1377  0.8144  0.0561  -2.4171   0.0000   0.0000   0.0000   3.0306
  -5.000   0.0617   0.01625   0.00885  -0.1377  0.8132  0.0571  -2.3656   0.0000   0.0000   0.0000   2.5466
  -4.900   0.0727   0.01603   0.00866  -0.1377  0.8121  0.0581  -2.3093   0.0000   0.0000   0.0000   2.1984
  -4.800   0.0839   0.01586   0.00848  -0.1378  0.8112  0.0595  -2.2530   0.0000   0.0000   0.0000   1.9359
  -4.700   0.0953   0.01573   0.00830  -0.1378  0.8102  0.0611  -2.1989   0.0000   0.0000   0.0000   1.7343
  -4.600   0.1057   0.01561   0.00817  -0.1377  0.8082  0.0625  -2.1491   0.0000   0.0000   0.0000   1.5874
  -4.500   0.1161   0.01540   0.00802  -0.1377  0.8065  0.0640  -2.0992   0.0000   0.0000   0.0000   1.4661
  -4.400   0.1271   0.01527   0.00789  -0.1378  0.8051  0.0657  -2.0499   0.0000   0.0000   0.0000   1.3604
  -4.300   0.1384   0.01514   0.00773  -0.1378  0.8039  0.0676  -2.0030   0.0000   0.0000   0.0000   1.2694
  -4.200   0.1496   0.01493   0.00752  -0.1378  0.8028  0.0693  -1.9563   0.0000   0.0000   0.0000   1.1930
  -4.100   0.1609   0.01476   0.00737  -0.1379  0.8019  0.0713  -1.9062   0.0000   0.0000   0.0000   1.1264
  -4.000   0.1725   0.01464   0.00722  -0.1379  0.8011  0.0738  -1.8574   0.0000   0.0000   0.0000   1.0673
  -3.900   0.1826   0.01452   0.00714  -0.1379  0.7989  0.0762  -1.8123   0.0000   0.0000   0.0000   1.0213
  -3.800   0.1934   0.01442   0.00705  -0.1379  0.7972  0.0790  -1.7642   0.0000   0.0000   0.0000   0.9778
  -3.700   0.2046   0.01429   0.00692  -0.1379  0.7957  0.0822  -1.7179   0.0000   0.0000   0.0000   0.9378
  -3.600   0.2158   0.01414   0.00680  -0.1380  0.7945  0.0856  -1.6695   0.0000   0.0000   0.0000   0.9020
  -3.500   0.2272   0.01399   0.00665  -0.1380  0.7934  0.0898  -1.6224   0.0000   0.0000   0.0000   0.8691
  -3.400   0.2388   0.01386   0.00652  -0.1381  0.7924  0.0950  -1.5741   0.0000   0.0000   0.0000   0.8390
  -3.300   0.2505   0.01370   0.00638  -0.1382  0.7916  0.1009  -1.5259   0.0000   0.0000   0.0000   0.8118
  -3.200   0.2607   0.01362   0.00635  -0.1382  0.7894  0.1078  -1.4815   0.0000   0.0000   0.0000   0.7893
  -3.100   0.2715   0.01350   0.00629  -0.1382  0.7876  0.1167  -1.4358   0.0000   0.0000   0.0000   0.7675
  -3.000   0.2827   0.01337   0.00620  -0.1383  0.7862  0.1279  -1.3896   0.0000   0.0000   0.0000   0.7469
  -2.900   0.2941   0.01323   0.00611  -0.1384  0.7849  0.1411  -1.3423   0.0000   0.0000   0.0000   0.7278
  -2.800   0.3056   0.01309   0.00603  -0.1385  0.7838  0.1566  -1.2985   0.0000   0.0000   0.0000   0.7099
  -2.700   0.3173   0.01297   0.00594  -0.1386  0.7828  0.1735  -1.2542   0.0000   0.0000   0.0000   0.6931
  -2.600   0.3290   0.01285   0.00586  -0.1388  0.7819  0.1905  -1.2096   0.0000   0.0000   0.0000   0.6774
  -2.500   0.3392   0.01281   0.00590  -0.1387  0.7796  0.2059  -1.1686   0.0000   0.0000   0.0000   0.6643
  -2.400   0.3501   0.01274   0.00589  -0.1388  0.7778  0.2225  -1.1260   0.0000   0.0000   0.0000   0.6512
  -2.300   0.3613   0.01265   0.00586  -0.1388  0.7763  0.2397  -1.0829   0.0000   0.0000   0.0000   0.6387
  -2.200   0.3728   0.01256   0.00581  -0.1389  0.7750  0.2577  -1.0396   0.0000   0.0000   0.0000   0.6267
  -2.100   0.3844   0.01245   0.00575  -0.1390  0.7739  0.2762  -0.9963   0.0000   0.0000   0.0000   0.6154
  -2.000   0.3962   0.01234   0.00569  -0.1392  0.7729  0.2961  -0.9531   0.0000   0.0000   0.0000   0.6047
  -1.900   0.4075   0.01226   0.00567  -0.1393  0.7716  0.3178  -0.9112   0.0000   0.0000   0.0000   0.5948
  -1.800   0.4178   0.01222   0.00571  -0.1392  0.7693  0.3403  -0.8720   0.0000   0.0000   0.0000   0.5860
  -1.700   0.4287   0.01213   0.00571  -0.1393  0.7676  0.3648  -0.8347   0.0000   0.0000   0.0000   0.5773
  -1.600   0.4399   0.01203   0.00568  -0.1393  0.7661  0.3919  -0.7970   0.0000   0.0000   0.0000   0.5689
  -1.500   0.4513   0.01191   0.00565  -0.1394  0.7648  0.4222  -0.7746   0.0000   0.0000   0.0000   0.5608
  -1.400   0.4629   0.01178   0.00561  -0.1395  0.7637  0.4545  -0.7820   0.0000   0.0000   0.0000   0.5530
  -1.300   0.4744   0.01166   0.00558  -0.1395  0.7627  0.4894  -0.7896   0.0000   0.0000   0.0000   0.5455
  -1.200   0.4846   0.01161   0.00565  -0.1394  0.7606  0.5233  -0.7961   0.0000   0.0000   0.0000   0.5389
  -1.100   0.4949   0.01155   0.00570  -0.1393  0.7586  0.5565  -0.8029   0.0000   0.0000   0.0000   0.5324
  -1.000   0.5055   0.01146   0.00571  -0.1392  0.7569  0.5884  -0.8102   0.0000   0.0000   0.0000   0.5260
  -0.900   0.5164   0.01138   0.00572  -0.1390  0.7555  0.6192  -0.8178   0.0000   0.0000   0.0000   0.5197
  -0.800   0.5274   0.01130   0.00571  -0.1389  0.7542  0.6501  -0.8256   0.0000   0.0000   0.0000   0.5136
  -0.700   0.5386   0.01123   0.00569  -0.1388  0.7531  0.6776  -0.8336   0.0000   0.0000   0.0000   0.5077
  -0.600   0.5491   0.01120   0.00572  -0.1385  0.7516  0.7014  -0.8411   0.0000   0.0000   0.0000   0.5022
  -0.500   0.5587   0.01120   0.00578  -0.1382  0.7492  0.7229  -0.8481   0.0000   0.0000   0.0000   0.4971
  -0.400   0.5688   0.01117   0.00581  -0.1379  0.7474  0.7424  -0.8555   0.0000   0.0000   0.0000   0.4920
  -0.300   0.5792   0.01112   0.00580  -0.1376  0.7458  0.7616  -0.8633   0.0000   0.0000   0.0000   0.4869
  -0.200   0.5899   0.01107   0.00577  -0.1374  0.7445  0.7804  -0.8713   0.0000   0.0000   0.0000   0.4820
  -0.100   0.6004   0.01101   0.00573  -0.1370  0.7433  0.7977  -0.8794   0.0000   0.0000   0.0000   0.4772
   0.000   0.6104   0.01098   0.00572  -0.1366  0.7419  0.8150  -0.8874   0.0000   0.0000   0.0000   0.4727
   0.100   0.6189   0.01098   0.00579  -0.1360  0.7394  0.8323  -0.8944   0.0000   0.0000   0.0000   0.4684
   0.200   0.6280   0.01095   0.00580  -0.1355  0.7374  0.8495  -0.9019   0.0000   0.0000   0.0000   0.4642
   0.300   0.6372   0.01090   0.00578  -0.1348  0.7358  0.8669  -0.9098   0.0000   0.0000   0.0000   0.4600
   0.400   0.6464   0.01083   0.00573  -0.1342  0.7343  0.8858  -0.9178   0.0000   0.0000   0.0000   0.4558
   0.500   0.6560   0.01076   0.00566  -0.1336  0.7331  0.9066  -0.9261   0.0000   0.0000   0.0000   0.4517
   0.600   0.6665   0.01072   0.00563  -0.1333  0.7314  0.9295  -0.9347   0.0000   0.0000   0.0000   0.4478
   0.700   0.6802   0.01070   0.00563  -0.1338  0.7290  0.9564  -0.9452   0.0000   0.0000   0.0000   0.4444
   0.800   0.6992   0.01065   0.00557  -0.1354  0.7270  0.9983  -0.9588   0.0000   0.0000   0.0000   0.4412
   0.900   0.7113   0.01064   0.00553  -0.1356  0.7253  1.0000  -0.9689   0.0000   0.0000   0.0000   0.4381
   1.000   0.7237   0.01064   0.00548  -0.1359  0.7239  1.0000  -0.9793   0.0000   0.0000   0.0000   0.4351
   1.100   0.7362   0.01063   0.00542  -0.1362  0.7226  1.0000  -0.9900   0.0000   0.0000   0.0000   0.4321
   1.200   0.7469   0.01068   0.00547  -0.1362  0.7202  1.0000  -0.9994   0.0000   0.0000   0.0000   0.4293
   1.300   0.7578   0.01071   0.00550  -0.1362  0.7178  1.0000  -1.0093   0.0000   0.0000   0.0000   0.4266
   1.400   0.7695   0.01072   0.00548  -0.1363  0.7158  1.0000  -1.0196   0.0000   0.0000   0.0000   0.4239
   1.500   0.7815   0.01072   0.00544  -0.1365  0.7142  1.0000  -1.0303   0.0000   0.0000   0.0000   0.4212
   1.600   0.7938   0.01071   0.00539  -0.1367  0.7127  1.0000  -1.0415   0.0000   0.0000   0.0000   0.4186
   1.700   0.8050   0.01074   0.00540  -0.1368  0.7107  1.0000  -1.0520   0.0000   0.0000   0.0000   0.4162
   1.800   0.8155   0.01078   0.00545  -0.1367  0.7080  1.0000  -1.0621   0.0000   0.0000   0.0000   0.4138
   1.900   0.8269   0.01080   0.00545  -0.1368  0.7059  1.0000  -1.0733   0.0000   0.0000   0.0000   0.4114
   2.000   0.8388   0.01079   0.00541  -0.1369  0.7040  1.0000  -1.0849   0.0000   0.0000   0.0000   0.4091
   2.100   0.8510   0.01079   0.00537  -0.1371  0.7025  1.0000  -1.0968   0.0000   0.0000   0.0000   0.4068
   2.200   0.8621   0.01082   0.00539  -0.1371  0.7003  1.0000  -1.1081   0.0000   0.0000   0.0000   0.4046
   2.300   0.8725   0.01086   0.00543  -0.1370  0.6975  1.0000  -1.1189   0.0000   0.0000   0.0000   0.4025
   2.400   0.8838   0.01087   0.00543  -0.1370  0.6952  1.0000  -1.1305   0.0000   0.0000   0.0000   0.4004
   2.500   0.8956   0.01087   0.00540  -0.1371  0.6933  1.0000  -1.1426   0.0000   0.0000   0.0000   0.3983
   2.600   0.9079   0.01086   0.00536  -0.1373  0.6917  1.0000  -1.1554   0.0000   0.0000   0.0000   0.3963
   2.700   0.9181   0.01091   0.00542  -0.1372  0.6889  1.0000  -1.1667   0.0000   0.0000   0.0000   0.3944
   2.800   0.9288   0.01094   0.00545  -0.1371  0.6862  1.0000  -1.1786   0.0000   0.0000   0.0000   0.3925
   2.900   0.9402   0.01095   0.00544  -0.1372  0.6839  1.0000  -1.1915   0.0000   0.0000   0.0000   0.3906
   3.000   0.9522   0.01094   0.00540  -0.1373  0.6820  1.0000  -1.2048   0.0000   0.0000   0.0000   0.3888
   3.100   0.9635   0.01097   0.00541  -0.1373  0.6797  1.0000  -1.2175   0.0000   0.0000   0.0000   0.3870
   3.200   0.9736   0.01101   0.00548  -0.1372  0.6766  1.0000  -1.2296   0.0000   0.0000   0.0000   0.3852
   3.300   0.9846   0.01102   0.00548  -0.1372  0.6740  1.0000  -1.2427   0.0000   0.0000   0.0000   0.3835
   3.400   0.9964   0.01102   0.00546  -0.1373  0.6719  1.0000  -1.2564   0.0000   0.0000   0.0000   0.3818
   3.500   1.0079   0.01104   0.00545  -0.1373  0.6696  1.0000  -1.2708   0.0000   0.0000   0.0000   0.3802
   3.600   1.0177   0.01109   0.00553  -0.1371  0.6662  1.0000  -1.2841   0.0000   0.0000   0.0000   0.3785
   3.700   1.0287   0.01111   0.00554  -0.1371  0.6634  1.0000  -1.2984   0.0000   0.0000   0.0000   0.3769
   3.800   1.0404   0.01111   0.00551  -0.1372  0.6611  1.0000  -1.3137   0.0000   0.0000   0.0000   0.3754
   3.900   1.0513   0.01114   0.00554  -0.1371  0.6585  1.0000  -1.3285   0.0000   0.0000   0.0000   0.3738
   4.000   1.0613   0.01119   0.00560  -0.1369  0.6550  1.0000  -1.3425   0.0000   0.0000   0.0000   0.3723
   4.100   1.0723   0.01121   0.00561  -0.1369  0.6521  1.0000  -1.3577   0.0000   0.0000   0.0000   0.3708
   4.200   1.0840   0.01121   0.00559  -0.1370  0.6498  1.0000  -1.3747   0.0000   0.0000   0.0000   0.3694
   4.300   1.0938   0.01127   0.00566  -0.1368  0.6462  1.0000  -1.3901   0.0000   0.0000   0.0000   0.3679
   4.400   1.1043   0.01130   0.00570  -0.1367  0.6428  1.0000  -1.4061   0.0000   0.0000   0.0000   0.3665
   4.500   1.1156   0.01131   0.00569  -0.1367  0.6400  1.0000  -1.4232   0.0000   0.0000   0.0000   0.3651
   4.600   1.1260   0.01135   0.00573  -0.1366  0.6367  1.0000  -1.4399   0.0000   0.0000   0.0000   0.3637
   4.700   1.1360   0.01140   0.00579  -0.1364  0.6329  1.0000  -1.4562   0.0000   0.0000   0.0000   0.3623
   4.800   1.1469   0.01142   0.00579  -0.1363  0.6297  1.0000  -1.4734   0.0000   0.0000   0.0000   0.3610
   4.900   1.1574   0.01146   0.00583  -0.1362  0.6262  1.0000  -1.4913   0.0000   0.0000   0.0000   0.3597
   5.000   1.1672   0.01151   0.00590  -0.1360  0.6220  1.0000  -1.5093   0.0000   0.0000   0.0000   0.3584
   5.100   1.1779   0.01154   0.00591  -0.1359  0.6186  1.0000  -1.5284   0.0000   0.0000   0.0000   0.3571
   5.200   1.1880   0.01160   0.00596  -0.1357  0.6146  1.0000  -1.5470   0.0000   0.0000   0.0000   0.3558
   5.300   1.1978   0.01165   0.00602  -0.1355  0.6103  1.0000  -1.5659   0.0000   0.0000   0.0000   0.3546
   5.400   1.2086   0.01169   0.00603  -0.1354  0.6069  1.0000  -1.5859   0.0000   0.0000   0.0000   0.3534
   5.500   1.2180   0.01175   0.00612  -0.1351  0.6022  1.0000  -1.6053   0.0000   0.0000   0.0000   0.3521
   5.600   1.2280   0.01181   0.00617  -0.1349  0.5980  1.0000  -1.6268   0.0000   0.0000   0.0000   0.3509
   5.700   1.2381   0.01187   0.00622  -0.1347  0.5938  1.0000  -1.6485   0.0000   0.0000   0.0000   0.3497
   5.800   1.2474   0.01193   0.00630  -0.1344  0.5889  1.0000  -1.6702   0.0000   0.0000   0.0000   0.3485
   5.900   1.2578   0.01199   0.00632  -0.1343  0.5849  1.0000  -1.6959   0.0000   0.0000   0.0000   0.3474
   6.000   1.2667   0.01207   0.00643  -0.1339  0.5795  1.0000  -1.7199   0.0000   0.0000   0.0000   0.3462
   6.100   1.2765   0.01214   0.00647  -0.1337  0.5750  1.0000  -1.7461   0.0000   0.0000   0.0000   0.3450
   6.200   1.2856   0.01223   0.00657  -0.1333  0.5697  1.0000  -1.7732   0.0000   0.0000   0.0000   0.3439
   6.300   1.2950   0.01231   0.00663  -0.1330  0.5648  1.0000  -1.8031   0.0000   0.0000   0.0000   0.3428
   6.400   1.3041   0.01240   0.00673  -0.1327  0.5594  1.0000  -1.8326   0.0000   0.0000   0.0000   0.3416
   6.500   1.3131   0.01250   0.00681  -0.1323  0.5541  1.0000  -1.8623   0.0000   0.0000   0.0000   0.3405
   6.600   1.3219   0.01260   0.00691  -0.1320  0.5485  1.0000  -1.8923   0.0000   0.0000   0.0000   0.3394
   6.700   1.3307   0.01270   0.00700  -0.1316  0.5428  1.0000  -1.9232   0.0000   0.0000   0.0000   0.3383
   6.800   1.3391   0.01281   0.00711  -0.1311  0.5369  1.0000  -1.9537   0.0000   0.0000   0.0000   0.3372
   6.900   1.3476   0.01293   0.00721  -0.1307  0.5311  1.0000  -1.9847   0.0000   0.0000   0.0000   0.3361
   7.000   1.3557   0.01306   0.00733  -0.1302  0.5248  1.0000  -2.0163   0.0000   0.0000   0.0000   0.3350
   7.100   1.3639   0.01319   0.00743  -0.1297  0.5189  1.0000  -2.0483   0.0000   0.0000   0.0000   0.3339
   7.200   1.3715   0.01333   0.00757  -0.1291  0.5121  1.0000  -2.0795   0.0000   0.0000   0.0000   0.3328
   7.300   1.3791   0.01348   0.00771  -0.1285  0.5057  1.0000  -2.1114   0.0000   0.0000   0.0000   0.3317
   7.400   1.3864   0.01363   0.00784  -0.1279  0.4989  1.0000  -2.1438   0.0000   0.0000   0.0000   0.3306
   7.500   1.3935   0.01379   0.00799  -0.1273  0.4920  1.0000  -2.1761   0.0000   0.0000   0.0000   0.3295
   7.600   1.4003   0.01398   0.00814  -0.1265  0.4853  1.0000  -2.2079   0.0000   0.0000   0.0000   0.3284
   7.700   1.4068   0.01415   0.00831  -0.1258  0.4780  1.0000  -2.2393   0.0000   0.0000   0.0000   0.3273
   7.800   1.4131   0.01434   0.00848  -0.1250  0.4708  1.0000  -2.2705   0.0000   0.0000   0.0000   0.3262
   7.900   1.4189   0.01456   0.00865  -0.1242  0.4640  1.0000  -2.3009   0.0000   0.0000   0.0000   0.3251
   8.000   1.4242   0.01475   0.00884  -0.1232  0.4566  1.0000  -2.3305   0.0000   0.0000   0.0000   0.3240
   8.100   1.4289   0.01496   0.00903  -0.1222  0.4497  1.0000  -2.3592   0.0000   0.0000   0.0000   0.3228
   8.200   1.4334   0.01521   0.00924  -0.1211  0.4429  1.0000  -2.3922   0.0000   0.0000   0.0000   0.3216
   8.300   1.4383   0.01544   0.00946  -0.1201  0.4356  1.0000  -2.4331   0.0000   0.0000   0.0000   0.3205
   8.400   1.4429   0.01570   0.00970  -0.1191  0.4289  1.0000  -2.4733   0.0000   0.0000   0.0000   0.3194
   8.500   1.4472   0.01597   0.00995  -0.1181  0.4219  1.0000  -2.5132   0.0000   0.0000   0.0000   0.3182
   8.600   1.4518   0.01624   0.01020  -0.1172  0.4148  1.0000  -2.5540   0.0000   0.0000   0.0000   0.3172
   8.700   1.4559   0.01655   0.01048  -0.1161  0.4082  1.0000  -2.5935   0.0000   0.0000   0.0000   0.3161
   8.800   1.4601   0.01685   0.01077  -0.1152  0.4011  1.0000  -2.6335   0.0000   0.0000   0.0000   0.3150
   8.900   1.4644   0.01716   0.01106  -0.1142  0.3943  1.0000  -2.6739   0.0000   0.0000   0.0000   0.3140
   9.000   1.4680   0.01752   0.01138  -0.1132  0.3878  1.0000  -2.7127   0.0000   0.0000   0.0000   0.3129
   9.100   1.4724   0.01784   0.01170  -0.1124  0.3808  1.0000  -2.7537   0.0000   0.0000   0.0000   0.3119
   9.200   1.4763   0.01819   0.01205  -0.1114  0.3744  1.0000  -2.7936   0.0000   0.0000   0.0000   0.3109
   9.300   1.4799   0.01857   0.01240  -0.1105  0.3679  1.0000  -2.8328   0.0000   0.0000   0.0000   0.3099
   9.400   1.4842   0.01893   0.01275  -0.1096  0.3611  1.0000  -2.8738   0.0000   0.0000   0.0000   0.3090
   9.500   1.4876   0.01934   0.01313  -0.1087  0.3549  1.0000  -2.9128   0.0000   0.0000   0.0000   0.3080
   9.600   1.4914   0.01973   0.01351  -0.1079  0.3482  1.0000  -2.9531   0.0000   0.0000   0.0000   0.3071
   9.700   1.4952   0.02013   0.01391  -0.1070  0.3419  1.0000  -2.9933   0.0000   0.0000   0.0000   0.3062
   9.800   1.4982   0.02059   0.01433  -0.1061  0.3357  1.0000  -3.0316   0.0000   0.0000   0.0000   0.3052
   9.900   1.5021   0.02100   0.01474  -0.1053  0.3290  1.0000  -3.0726   0.0000   0.0000   0.0000   0.3043
  10.000   1.5053   0.02146   0.01518  -0.1044  0.3229  1.0000  -3.1116   0.0000   0.0000   0.0000   0.3034
  10.100   1.5084   0.02193   0.01563  -0.1036  0.3164  1.0000  -3.1507   0.0000   0.0000   0.0000   0.3025
  10.200   1.5119   0.02238   0.01608  -0.1028  0.3100  1.0000  -3.1908   0.0000   0.0000   0.0000   0.3017
  10.300   1.5144   0.02291   0.01659  -0.1019  0.3040  1.0000  -3.2284   0.0000   0.0000   0.0000   0.3008
  10.400   1.5179   0.02338   0.01705  -0.1011  0.2975  1.0000  -3.2688   0.0000   0.0000   0.0000   0.2999
  10.500   1.5209   0.02389   0.01755  -0.1003  0.2914  1.0000  -3.3077   0.0000   0.0000   0.0000   0.2991
  10.600   1.5233   0.02444   0.01808  -0.0994  0.2853  1.0000  -3.3452   0.0000   0.0000   0.0000   0.2982
  10.700   1.5265   0.02495   0.01858  -0.0987  0.2789  1.0000  -3.3851   0.0000   0.0000   0.0000   0.2974
  10.800   1.5287   0.02552   0.01914  -0.0978  0.2728  1.0000  -3.4225   0.0000   0.0000   0.0000   0.2966
  10.900   1.5311   0.02610   0.01970  -0.0970  0.2664  1.0000  -3.4602   0.0000   0.0000   0.0000   0.2957
  11.000   1.5337   0.02666   0.02025  -0.0962  0.2600  1.0000  -3.4987   0.0000   0.0000   0.0000   0.2949
  11.100   1.5354   0.02729   0.02085  -0.0954  0.2539  1.0000  -3.5347   0.0000   0.0000   0.0000   0.2941
  11.200   1.5376   0.02790   0.02145  -0.0946  0.2474  1.0000  -3.5720   0.0000   0.0000   0.0000   0.2933
  11.300   1.5398   0.02851   0.02205  -0.0938  0.2410  1.0000  -3.6097   0.0000   0.0000   0.0000   0.2926
  11.400   1.5412   0.02918   0.02270  -0.0930  0.2350  1.0000  -3.6450   0.0000   0.0000   0.0000   0.2918
  11.500   1.5431   0.02984   0.02334  -0.0922  0.2286  1.0000  -3.6816   0.0000   0.0000   0.0000   0.2910
  11.600   1.5450   0.03049   0.02398  -0.0915  0.2223  1.0000  -3.7187   0.0000   0.0000   0.0000   0.2902
  11.700   1.5461   0.03120   0.02467  -0.0907  0.2164  1.0000  -3.7532   0.0000   0.0000   0.0000   0.2895
  11.800   1.5476   0.03190   0.02535  -0.0899  0.2102  1.0000  -3.7888   0.0000   0.0000   0.0000   0.2887
  11.900   1.5492   0.03259   0.02604  -0.0892  0.2041  1.0000  -3.8249   0.0000   0.0000   0.0000   0.2880
  12.000   1.5501   0.03334   0.02677  -0.0884  0.1983  1.0000  -3.8589   0.0000   0.0000   0.0000   0.2873
  12.100   1.5510   0.03410   0.02751  -0.0876  0.1923  1.0000  -3.8930   0.0000   0.0000   0.0000   0.2866
  12.200   1.5525   0.03483   0.02822  -0.0870  0.1863  1.0000  -3.9288   0.0000   0.0000   0.0000   0.2858
  12.300   1.5533   0.03562   0.02900  -0.0862  0.1808  1.0000  -3.9625   0.0000   0.0000   0.0000   0.2851
  12.400   1.5540   0.03643   0.02979  -0.0855  0.1752  1.0000  -3.9960   0.0000   0.0000   0.0000   0.2845
  12.500   1.5553   0.03720   0.03055  -0.0849  0.1695  1.0000  -4.0316   0.0000   0.0000   0.0000   0.2838
  12.600   1.5559   0.03803   0.03137  -0.0842  0.1645  1.0000  -4.0645   0.0000   0.0000   0.0000   0.2831
  12.700   1.5566   0.03887   0.03219  -0.0835  0.1593  1.0000  -4.0979   0.0000   0.0000   0.0000   0.2825
  12.800   1.5577   0.03968   0.03300  -0.0829  0.1542  1.0000  -4.1327   0.0000   0.0000   0.0000   0.2818
  12.900   1.5578   0.04059   0.03389  -0.0822  0.1496  1.0000  -4.1640   0.0000   0.0000   0.0000   0.2812
  13.000   1.5591   0.04141   0.03471  -0.0816  0.1446  1.0000  -4.1994   0.0000   0.0000   0.0000   0.2806
  13.100   1.5597   0.04230   0.03559  -0.0810  0.1402  1.0000  -4.2325   0.0000   0.0000   0.0000   0.2799
  13.200   1.5601   0.04321   0.03649  -0.0804  0.1358  1.0000  -4.2648   0.0000   0.0000   0.0000   0.2793
  13.300   1.5611   0.04408   0.03737  -0.0799  0.1315  1.0000  -4.2990   0.0000   0.0000   0.0000   0.2787
  13.400   1.5609   0.04508   0.03834  -0.0793  0.1277  1.0000  -4.3292   0.0000   0.0000   0.0000   0.2782
  13.500   1.5621   0.04595   0.03922  -0.0788  0.1235  1.0000  -4.3655   0.0000   0.0000   0.0000   0.2776
  13.700   1.5628   0.04787   0.04114  -0.0777  0.1161  1.0000  -4.4340   0.0000   0.0000   0.0000   0.2765
  13.800   1.5620   0.04895   0.04221  -0.0772  0.1130  1.0000  -4.4644   0.0000   0.0000   0.0000   0.2759
  13.900   1.5632   0.04985   0.04313  -0.0767  0.1093  1.0000  -4.5016   0.0000   0.0000   0.0000   0.2754
  14.000   1.5625   0.05096   0.04421  -0.0762  0.1065  1.0000  -4.5319   0.0000   0.0000   0.0000   0.2749
  14.100   1.5634   0.05190   0.04518  -0.0758  0.1032  1.0000  -4.5683   0.0000   0.0000   0.0000   0.2744
  14.200   1.5630   0.05300   0.04627  -0.0753  0.1004  1.0000  -4.5995   0.0000   0.0000   0.0000   0.2739
  14.300   1.5633   0.05403   0.04732  -0.0749  0.0976  1.0000  -4.6334   0.0000   0.0000   0.0000   0.2734
  14.400   1.5633   0.05509   0.04839  -0.0745  0.0949  1.0000  -4.6664   0.0000   0.0000   0.0000   0.2729
  14.500   1.5622   0.05629   0.04958  -0.0741  0.0928  1.0000  -4.6951   0.0000   0.0000   0.0000   0.2724
  14.600   1.5633   0.05726   0.05058  -0.0738  0.0901  1.0000  -4.7314   0.0000   0.0000   0.0000   0.2720
  14.700   1.5627   0.05842   0.05174  -0.0734  0.0879  1.0000  -4.7620   0.0000   0.0000   0.0000   0.2715
  14.800   1.5621   0.05959   0.05292  -0.0730  0.0859  1.0000  -4.7921   0.0000   0.0000   0.0000   0.2711
  14.900   1.5627   0.06062   0.05398  -0.0727  0.0836  1.0000  -4.8267   0.0000   0.0000   0.0000   0.2706
  15.000   1.5617   0.06184   0.05520  -0.0724  0.0818  1.0000  -4.8558   0.0000   0.0000   0.0000   0.2702
  15.100   1.5608   0.06308   0.05644  -0.0721  0.0801  1.0000  -4.8844   0.0000   0.0000   0.0000   0.2698
  15.200   1.5615   0.06413   0.05753  -0.0718  0.0780  1.0000  -4.9192   0.0000   0.0000   0.0000   0.2694
  15.300   1.5608   0.06536   0.05877  -0.0715  0.0763  1.0000  -4.9487   0.0000   0.0000   0.0000   0.2691
  15.400   1.5587   0.06675   0.06016  -0.0713  0.0750  1.0000  -4.9730   0.0000   0.0000   0.0000   0.2687
  15.500   1.5595   0.06782   0.06127  -0.0711  0.0731  1.0000  -5.0076   0.0000   0.0000   0.0000   0.2683
  15.600   1.5595   0.06900   0.06248  -0.0709  0.0715  1.0000  -5.0394   0.0000   0.0000   0.0000   0.2680
  15.700   1.5580   0.07035   0.06384  -0.0707  0.0701  1.0000  -5.0657   0.0000   0.0000   0.0000   0.2676
  15.800   1.5559   0.07178   0.06526  -0.0705  0.0690  1.0000  -5.0892   0.0000   0.0000   0.0000   0.2674
  15.900   1.5568   0.07288   0.06642  -0.0703  0.0673  1.0000  -5.1234   0.0000   0.0000   0.0000   0.2670
  16.000   1.5564   0.07412   0.06769  -0.0702  0.0659  1.0000  -5.1535   0.0000   0.0000   0.0000   0.2667
  16.100   1.5549   0.07550   0.06908  -0.0700  0.0648  1.0000  -5.1790   0.0000   0.0000   0.0000   0.2664
  16.200   1.5522   0.07703   0.07061  -0.0699  0.0638  1.0000  -5.2015   0.0000   0.0000   0.0000   0.2662
  16.300   1.5525   0.07821   0.07183  -0.0698  0.0624  1.0000  -5.2416   0.0000   0.0000   0.0000   0.2658
  16.400   1.5521   0.07948   0.07314  -0.0697  0.0611  1.0000  -5.2790   0.0000   0.0000   0.0000   0.2656
  16.500   1.5510   0.08085   0.07453  -0.0696  0.0600  1.0000  -5.3130   0.0000   0.0000   0.0000   0.2653
  16.600   1.5487   0.08236   0.07606  -0.0696  0.0591  1.0000  -5.3416   0.0000   0.0000   0.0000   0.2651
  16.700   1.5466   0.08387   0.07757  -0.0695  0.0581  1.0000  -5.3699   0.0000   0.0000   0.0000   0.2649
  16.800   1.5466   0.08512   0.07888  -0.0695  0.0568  1.0000  -5.4083   0.0000   0.0000   0.0000   0.2647
  16.900   1.5459   0.08649   0.08029  -0.0695  0.0557  1.0000  -5.4431   0.0000   0.0000   0.0000   0.2645
  17.000   1.5445   0.08794   0.08176  -0.0695  0.0548  1.0000  -5.4752   0.0000   0.0000   0.0000   0.2643
  17.100   1.5420   0.08952   0.08334  -0.0696  0.0539  1.0000  -5.5021   0.0000   0.0000   0.0000   0.2641
  17.200   1.5397   0.09108   0.08490  -0.0696  0.0531  1.0000  -5.5288   0.0000   0.0000   0.0000   0.2640
  17.300   1.5394   0.09241   0.08630  -0.0697  0.0520  1.0000  -5.5646   0.0000   0.0000   0.0000   0.2638
  17.400   1.5385   0.09382   0.08776  -0.0698  0.0510  1.0000  -5.5979   0.0000   0.0000   0.0000   0.2636
  17.500   1.5371   0.09531   0.08927  -0.0699  0.0501  1.0000  -5.6289   0.0000   0.0000   0.0000   0.2635
  17.600   1.5350   0.09687   0.09084  -0.0700  0.0493  1.0000  -5.6567   0.0000   0.0000   0.0000   0.2634
  17.700   1.5320   0.09850   0.09245  -0.0701  0.0487  1.0000  -5.6801   0.0000   0.0000   0.0000   0.2633
  17.800   1.5312   0.09992   0.09393  -0.0702  0.0477  1.0000  -5.7118   0.0000   0.0000   0.0000   0.2632
  17.900   1.5304   0.10135   0.09541  -0.0704  0.0468  1.0000  -5.7437   0.0000   0.0000   0.0000   0.2631
  18.000   1.5291   0.10284   0.09694  -0.0706  0.0460  1.0000  -5.7739   0.0000   0.0000   0.0000   0.2630
  18.100   1.5276   0.10434   0.09846  -0.0708  0.0453  1.0000  -5.8039   0.0000   0.0000   0.0000   0.2629
  18.200   1.5258   0.10589   0.10002  -0.0710  0.0446  1.0000  -5.8321   0.0000   0.0000   0.0000   0.2629
  18.300   1.5236   0.10742   0.10152  -0.0712  0.0440  1.0000  -5.8584   0.0000   0.0000   0.0000   0.2628
  18.400   1.5227   0.10889   0.10305  -0.0714  0.0433  1.0000  -5.8884   0.0000   0.0000   0.0000   0.2627
  18.500   1.5218   0.11037   0.10459  -0.0717  0.0425  1.0000  -5.9184   0.0000   0.0000   0.0000   0.2627
  18.600   1.5208   0.11185   0.10611  -0.0720  0.0418  1.0000  -5.9492   0.0000   0.0000   0.0000   0.2627
  18.700   1.5198   0.11333   0.10762  -0.0723  0.0412  1.0000  -5.9800   0.0000   0.0000   0.0000   0.2626
  18.800   1.5187   0.11481   0.10911  -0.0726  0.0406  1.0000  -6.0110   0.0000   0.0000   0.0000   0.2626
  18.900   1.5176   0.11625   0.11055  -0.0729  0.0401  1.0000  -6.0426   0.0000   0.0000   0.0000   0.2626
  19.000   1.5168   0.11751   0.11176  -0.0730  0.0395  1.0000  -6.0764   0.0000   0.0000   0.0000   0.2624
  19.100   1.5159   0.11906   0.11340  -0.0734  0.0390  1.0000  -6.1038   0.0000   0.0000   0.0000   0.2625
  19.200   1.5152   0.12054   0.11494  -0.0738  0.0384  1.0000  -6.1337   0.0000   0.0000   0.0000   0.2625
  19.300   1.5145   0.12199   0.11644  -0.0741  0.0378  1.0000  -6.1644   0.0000   0.0000   0.0000   0.2625
  19.400   1.5140   0.12341   0.11788  -0.0745  0.0373  1.0000  -6.1966   0.0000   0.0000   0.0000   0.2625
  19.500   1.5136   0.12478   0.11928  -0.0749  0.0368  1.0000  -6.2300   0.0000   0.0000   0.0000   0.2625
  19.600   1.5133   0.12612   0.12063  -0.0752  0.0364  1.0000  -6.2645   0.0000   0.0000   0.0000   0.2625
  19.700   1.5134   0.12738   0.12189  -0.0755  0.0360  1.0000  -6.3012   0.0000   0.0000   0.0000   0.2624
  19.800   1.5141   0.12843   0.12292  -0.0757  0.0356  1.0000  -6.3428   0.0000   0.0000   0.0000   0.2622
  19.900   1.5151   0.12942   0.12390  -0.0758  0.0352  1.0000  -6.3840   0.0000   0.0000   0.0000   0.2620
  20.000   1.5144   0.13093   0.12548  -0.0763  0.0349  1.0000  -6.4111   0.0000   0.0000   0.0000   0.2621


