xflr5 v6.57

 Calculated polar for: QX0023

 1 1 Reynolds number fixed          Mach number fixed         

 xtrf =   1.000 (top)        1.000 (bottom)
 Mach =   0.000     Re =     0.160 e 6     Ncrit =   9.000

  alpha     CL        CD       CDp       Cm    Top Xtr Bot Xtr   Cpmin    Chinge    XCp    
 ------- -------- --------- --------- -------- ------- ------- -------- --------- ---------
 -10.000   0.0243   0.07627   0.07238  -0.1069  0.9335  0.0875  -1.1218   0.0000   0.0000   0.0000   4.8305
  -9.900   0.0073   0.07444   0.07056  -0.1093  0.9323  0.0885  -1.2364   0.0000   0.0000   0.0000  15.7761
  -9.800  -0.1200   0.09988   0.09580  -0.0951  0.9616  0.0800  -1.5151   0.0000   0.0000   0.0000  -0.5999
  -9.700  -0.1392   0.09699   0.09294  -0.1027  0.9572  0.0816  -1.7298   0.0000   0.0000   0.0000  -0.5371
  -9.300  -0.0982   0.09274   0.08865  -0.1011  0.9528  0.0845  -1.5192   0.0000   0.0000   0.0000  -0.8474
  -9.200  -0.0939   0.09144   0.08734  -0.1022  0.9509  0.0859  -1.5181   0.0000   0.0000   0.0000  -0.9086
  -9.100  -0.1020   0.08945   0.08536  -0.1062  0.9471  0.0882  -1.6154   0.0000   0.0000   0.0000  -0.8539
  -9.000  -0.1070   0.08716   0.08310  -0.1094  0.9442  0.0889  -1.6907   0.0000   0.0000   0.0000  -0.8326
  -8.900  -0.0950   0.08627   0.08219  -0.1083  0.9436  0.0894  -1.6228   0.0000   0.0000   0.0000  -0.9570
  -8.800  -0.0883   0.08555   0.08147  -0.1076  0.9413  0.0899  -1.5822   0.0000   0.0000   0.0000  -1.0397
  -8.700  -0.0818   0.08465   0.08056  -0.1076  0.9395  0.0908  -1.5526   0.0000   0.0000   0.0000  -1.1423
  -8.600  -0.0764   0.08354   0.07945  -0.1082  0.9380  0.0920  -1.5373   0.0000   0.0000   0.0000  -1.2480
  -8.500  -0.0757   0.08246   0.07837  -0.1089  0.9349  0.0934  -1.5443   0.0000   0.0000   0.0000  -1.2689
  -8.100  -0.0732   0.07701   0.07293  -0.1131  0.9249  0.0977  -1.5934   0.0000   0.0000   0.0000  -1.3737
  -8.000  -0.0696   0.07635   0.07228  -0.1127  0.9221  0.0987  -1.5709   0.0000   0.0000   0.0000  -1.4501
  -7.900  -0.0674   0.07536   0.07128  -0.1132  0.9197  0.1003  -1.5655   0.0000   0.0000   0.0000  -1.5118
  -7.800  -0.0802   0.07361   0.06956  -0.1162  0.9145  0.1027  -1.6517   0.0000   0.0000   0.0000  -1.2660
  -7.000  -0.0660   0.06343   0.05935  -0.1247  0.8957  0.1138  -1.6568   0.0000   0.0000   0.0000  -1.7138
  -6.900  -0.0656   0.06276   0.05869  -0.1246  0.8921  0.1150  -1.6490   0.0000   0.0000   0.0000  -1.7222
  -6.700  -0.1040   0.04542   0.04051  -0.1398  0.8816  0.0832  -2.2989   0.0000   0.0000   0.0000  -1.1420
  -6.600  -0.0932   0.04576   0.04085  -0.1401  0.8807  0.0899  -2.2141   0.0000   0.0000   0.0000  -1.3051
  -6.400  -0.1070   0.03330   0.02677  -0.1412  0.8736  0.0642  -2.7539   0.0000   0.0000   0.0000  -1.1174
  -6.300  -0.0961   0.03220   0.02547  -0.1416  0.8727  0.0644  -2.7350   0.0000   0.0000   0.0000  -1.2764
  -6.200  -0.0926   0.03182   0.02499  -0.1407  0.8696  0.0647  -2.7157   0.0000   0.0000   0.0000  -1.3233
  -6.100  -0.0849   0.03127   0.02433  -0.1404  0.8675  0.0654  -2.6859   0.0000   0.0000   0.0000  -1.4630
  -6.000  -0.0743   0.03055   0.02343  -0.1406  0.8662  0.0664  -2.6548   0.0000   0.0000   0.0000  -1.7091
  -5.900  -0.0627   0.02976   0.02241  -0.1409  0.8651  0.0673  -2.6271   0.0000   0.0000   0.0000  -2.0732
  -5.800  -0.0504   0.02899   0.02135  -0.1412  0.8643  0.0681  -2.6005   0.0000   0.0000   0.0000  -2.6440
  -5.600  -0.0379   0.02827   0.02053  -0.1400  0.8592  0.0692  -2.5414   0.0000   0.0000   0.0000  -3.5615
  -5.500  -0.0265   0.02785   0.02011  -0.1401  0.8579  0.0700  -2.4937   0.0000   0.0000   0.0000  -5.2081
  -5.400  -0.0142   0.02740   0.01962  -0.1404  0.8569  0.0709  -2.4483   0.0000   0.0000   0.0000  -9.9711
  -5.300  -0.0014   0.02692   0.01906  -0.1407  0.8561  0.0720  -2.4063   0.0000   0.0000   0.0000  -103.7822
  -5.200   0.0118   0.02644   0.01845  -0.1410  0.8554  0.0734  -2.3663   0.0000   0.0000   0.0000  12.6051
  -5.100   0.0131   0.02652   0.01843  -0.1396  0.8513  0.0742  -2.3500   0.0000   0.0000   0.0000  11.2645
  -5.000   0.0240   0.02614   0.01800  -0.1396  0.8498  0.0756  -2.3078   0.0000   0.0000   0.0000   6.2512
  -4.900   0.0361   0.02583   0.01773  -0.1398  0.8488  0.0772  -2.2524   0.0000   0.0000   0.0000   4.2410
  -4.800   0.0488   0.02550   0.01737  -0.1401  0.8479  0.0789  -2.2022   0.0000   0.0000   0.0000   3.2004
  -4.700   0.0621   0.02512   0.01687  -0.1404  0.8471  0.0808  -2.1588   0.0000   0.0000   0.0000   2.5722
  -4.500   0.0753   0.02489   0.01663  -0.1391  0.8418  0.0831  -2.0895   0.0000   0.0000   0.0000   2.1478
  -4.400   0.0870   0.02464   0.01640  -0.1392  0.8406  0.0850  -2.0390   0.0000   0.0000   0.0000   1.8932
  -4.300   0.0998   0.02438   0.01607  -0.1394  0.8396  0.0876  -1.9906   0.0000   0.0000   0.0000   1.6839
  -4.200   0.1126   0.02403   0.01574  -0.1397  0.8388  0.0900  -1.9448   0.0000   0.0000   0.0000   1.5222
  -4.100   0.1258   0.02375   0.01547  -0.1400  0.8381  0.0927  -1.8965   0.0000   0.0000   0.0000   1.3909
  -4.000   0.1277   0.02397   0.01567  -0.1387  0.8340  0.0944  -1.8756   0.0000   0.0000   0.0000   1.3628
  -3.900   0.1384   0.02374   0.01544  -0.1387  0.8324  0.0969  -1.8372   0.0000   0.0000   0.0000   1.2757
  -3.800   0.1505   0.02350   0.01524  -0.1389  0.8313  0.0999  -1.7908   0.0000   0.0000   0.0000   1.1939
  -3.700   0.1635   0.02325   0.01494  -0.1391  0.8304  0.1039  -1.7474   0.0000   0.0000   0.0000   1.1199
  -3.600   0.1764   0.02297   0.01473  -0.1394  0.8296  0.1080  -1.6982   0.0000   0.0000   0.0000   1.0574
  -3.500   0.1898   0.02268   0.01445  -0.1397  0.8289  0.1128  -1.6524   0.0000   0.0000   0.0000   1.0016
  -3.400   0.1904   0.02300   0.01481  -0.1383  0.8242  0.1152  -1.6308   0.0000   0.0000   0.0000   0.9915
  -3.300   0.2020   0.02280   0.01462  -0.1384  0.8229  0.1208  -1.5887   0.0000   0.0000   0.0000   0.9489
  -3.200   0.2147   0.02258   0.01441  -0.1386  0.8219  0.1279  -1.5434   0.0000   0.0000   0.0000   0.9082
  -3.100   0.2277   0.02233   0.01420  -0.1389  0.8210  0.1364  -1.4967   0.0000   0.0000   0.0000   0.8716
  -3.000   0.2409   0.02204   0.01399  -0.1392  0.8203  0.1463  -1.4493   0.0000   0.0000   0.0000   0.8385
  -2.800   0.2545   0.02216   0.01423  -0.1382  0.8145  0.1662  -1.3815   0.0000   0.0000   0.0000   0.8025
  -2.700   0.2668   0.02195   0.01409  -0.1384  0.8133  0.1834  -1.3375   0.0000   0.0000   0.0000   0.7776
  -2.600   0.2796   0.02170   0.01393  -0.1387  0.8123  0.2036  -1.2945   0.0000   0.0000   0.0000   0.7541
  -2.500   0.2927   0.02145   0.01378  -0.1391  0.8115  0.2258  -1.2499   0.0000   0.0000   0.0000   0.7324
  -2.400   0.3061   0.02121   0.01363  -0.1394  0.8108  0.2499  -1.2043   0.0000   0.0000   0.0000   0.7123
  -2.200   0.3195   0.02143   0.01402  -0.1385  0.8047  0.2883  -1.1390   0.0000   0.0000   0.0000   0.6893
  -2.100   0.3320   0.02125   0.01393  -0.1387  0.8036  0.3150  -1.0946   0.0000   0.0000   0.0000   0.6732
  -2.000   0.3447   0.02104   0.01383  -0.1390  0.8027  0.3435  -1.0497   0.0000   0.0000   0.0000   0.6580
  -1.900   0.3578   0.02082   0.01371  -0.1393  0.8019  0.3753  -1.0043   0.0000   0.0000   0.0000   0.6436
  -1.800   0.3710   0.02057   0.01359  -0.1395  0.8013  0.4104  -0.9590   0.0000   0.0000   0.0000   0.6301
  -1.600   0.3837   0.02083   0.01411  -0.1384  0.7948  0.4721  -0.8961   0.0000   0.0000   0.0000   0.6140
  -1.500   0.3956   0.02063   0.01406  -0.1383  0.7938  0.5156  -0.8569   0.0000   0.0000   0.0000   0.6028
  -1.400   0.4077   0.02042   0.01399  -0.1383  0.7929  0.5600  -0.8177   0.0000   0.0000   0.0000   0.5919
  -1.300   0.4197   0.02021   0.01392  -0.1381  0.7922  0.6025  -0.7787   0.0000   0.0000   0.0000   0.5814
  -1.200   0.4314   0.02001   0.01385  -0.1377  0.7915  0.6430  -0.7462   0.0000   0.0000   0.0000   0.5715
  -1.100   0.4312   0.02055   0.01448  -0.1363  0.7860  0.6680  -0.7455   0.0000   0.0000   0.0000   0.5680
  -1.000   0.4414   0.02045   0.01445  -0.1357  0.7847  0.7020  -0.7530   0.0000   0.0000   0.0000   0.5592
  -0.900   0.4519   0.02031   0.01437  -0.1352  0.7837  0.7332  -0.7608   0.0000   0.0000   0.0000   0.5505
  -0.800   0.4624   0.02015   0.01427  -0.1345  0.7829  0.7617  -0.7687   0.0000   0.0000   0.0000   0.5421
  -0.700   0.4728   0.01998   0.01414  -0.1338  0.7822  0.7892  -0.7767   0.0000   0.0000   0.0000   0.5340
  -0.500   0.4796   0.02040   0.01468  -0.1309  0.7753  0.8354  -0.7825   0.0000   0.0000   0.0000   0.5235
  -0.400   0.4881   0.02025   0.01456  -0.1298  0.7742  0.8622  -0.7895   0.0000   0.0000   0.0000   0.5163
  -0.300   0.4975   0.02006   0.01438  -0.1288  0.7734  0.8920  -0.7973   0.0000   0.0000   0.0000   0.5090
  -0.200   0.5107   0.01983   0.01416  -0.1286  0.7727  0.9279  -0.8072   0.0000   0.0000   0.0000   0.5017
  -0.100   0.5341   0.01958   0.01389  -0.1306  0.7723  0.9819  -0.8228   0.0000   0.0000   0.0000   0.4942
   0.100   0.5497   0.02012   0.01436  -0.1304  0.7652  1.0000  -0.8338   0.0000   0.0000   0.0000   0.4864
   0.200   0.5641   0.02002   0.01419  -0.1309  0.7642  1.0000  -0.8447   0.0000   0.0000   0.0000   0.4811
   0.300   0.5789   0.01989   0.01400  -0.1314  0.7634  1.0000  -0.8558   0.0000   0.0000   0.0000   0.4759
   0.400   0.5938   0.01975   0.01380  -0.1319  0.7628  1.0000  -0.8671   0.0000   0.0000   0.0000   0.4709
   0.700   0.6220   0.02019   0.01415  -0.1315  0.7548  1.0000  -0.8895   0.0000   0.0000   0.0000   0.4597
   0.800   0.6364   0.02005   0.01396  -0.1320  0.7539  1.0000  -0.9012   0.0000   0.0000   0.0000   0.4554
   0.900   0.6511   0.01990   0.01375  -0.1324  0.7532  1.0000  -0.9132   0.0000   0.0000   0.0000   0.4512
   1.000   0.6661   0.01973   0.01354  -0.1329  0.7525  1.0000  -0.9255   0.0000   0.0000   0.0000   0.4472
   1.100   0.6660   0.02039   0.01421  -0.1316  0.7464  1.0000  -0.9264   0.0000   0.0000   0.0000   0.4451
   1.200   0.6796   0.02028   0.01407  -0.1319  0.7452  1.0000  -0.9380   0.0000   0.0000   0.0000   0.4414
   1.300   0.6938   0.02013   0.01388  -0.1322  0.7443  1.0000  -0.9501   0.0000   0.0000   0.0000   0.4378
   1.400   0.7084   0.01997   0.01367  -0.1326  0.7435  1.0000  -0.9626   0.0000   0.0000   0.0000   0.4343
   1.500   0.7232   0.01979   0.01346  -0.1331  0.7427  1.0000  -0.9754   0.0000   0.0000   0.0000   0.4309
   1.700   0.7372   0.02029   0.01395  -0.1321  0.7356  1.0000  -0.9893   0.0000   0.0000   0.0000   0.4258
   1.800   0.7514   0.02014   0.01376  -0.1324  0.7345  1.0000  -1.0021   0.0000   0.0000   0.0000   0.4227
   1.900   0.7659   0.01996   0.01355  -0.1328  0.7336  1.0000  -1.0155   0.0000   0.0000   0.0000   0.4197
   2.000   0.7806   0.01978   0.01332  -0.1332  0.7328  1.0000  -1.0292   0.0000   0.0000   0.0000   0.4168
   2.200   0.7954   0.02021   0.01376  -0.1322  0.7258  1.0000  -1.0451   0.0000   0.0000   0.0000   0.4121
   2.300   0.8095   0.02005   0.01357  -0.1325  0.7246  1.0000  -1.0587   0.0000   0.0000   0.0000   0.4095
   2.400   0.8239   0.01986   0.01335  -0.1329  0.7236  1.0000  -1.0727   0.0000   0.0000   0.0000   0.4069
   2.500   0.8387   0.01966   0.01312  -0.1333  0.7227  1.0000  -1.0869   0.0000   0.0000   0.0000   0.4044
   2.700   0.8542   0.02003   0.01350  -0.1323  0.7158  1.0000  -1.1047   0.0000   0.0000   0.0000   0.4002
   2.800   0.8680   0.01987   0.01331  -0.1326  0.7144  1.0000  -1.1189   0.0000   0.0000   0.0000   0.3979
   2.900   0.8825   0.01967   0.01309  -0.1330  0.7133  1.0000  -1.1339   0.0000   0.0000   0.0000   0.3956
   3.000   0.8975   0.01946   0.01285  -0.1334  0.7124  1.0000  -1.1496   0.0000   0.0000   0.0000   0.3934
   3.100   0.9007   0.01988   0.01330  -0.1324  0.7073  1.0000  -1.1554   0.0000   0.0000   0.0000   0.3916
   3.200   0.9132   0.01978   0.01319  -0.1325  0.7053  1.0000  -1.1691   0.0000   0.0000   0.0000   0.3896
   3.300   0.9272   0.01960   0.01299  -0.1327  0.7039  1.0000  -1.1844   0.0000   0.0000   0.0000   0.3876
   3.400   0.9420   0.01938   0.01274  -0.1331  0.7028  1.0000  -1.2006   0.0000   0.0000   0.0000   0.3856
   3.500   0.9572   0.01916   0.01249  -0.1336  0.7018  1.0000  -1.2172   0.0000   0.0000   0.0000   0.3837
   3.600   0.9595   0.01960   0.01297  -0.1324  0.6962  1.0000  -1.2232   0.0000   0.0000   0.0000   0.3820
   3.700   0.9727   0.01945   0.01282  -0.1326  0.6944  1.0000  -1.2394   0.0000   0.0000   0.0000   0.3801
   3.800   0.9872   0.01925   0.01260  -0.1329  0.6930  1.0000  -1.2567   0.0000   0.0000   0.0000   0.3784
   3.900   1.0023   0.01902   0.01234  -0.1333  0.6918  1.0000  -1.2749   0.0000   0.0000   0.0000   0.3766
   4.000   1.0066   0.01934   0.01270  -0.1324  0.6869  1.0000  -1.2836   0.0000   0.0000   0.0000   0.3750
   4.100   1.0188   0.01925   0.01260  -0.1324  0.6845  1.0000  -1.2995   0.0000   0.0000   0.0000   0.3733
   4.200   1.0330   0.01905   0.01238  -0.1328  0.6828  1.0000  -1.3174   0.0000   0.0000   0.0000   0.3717
   4.300   1.0481   0.01882   0.01212  -0.1332  0.6815  1.0000  -1.3369   0.0000   0.0000   0.0000   0.3701
   4.400   1.0536   0.01907   0.01242  -0.1324  0.6769  1.0000  -1.3479   0.0000   0.0000   0.0000   0.3685
   4.500   1.0652   0.01900   0.01234  -0.1323  0.6742  1.0000  -1.3649   0.0000   0.0000   0.0000   0.3670
   4.600   1.0793   0.01880   0.01213  -0.1326  0.6723  1.0000  -1.3845   0.0000   0.0000   0.0000   0.3655
   4.700   1.0945   0.01857   0.01187  -0.1331  0.6708  1.0000  -1.4056   0.0000   0.0000   0.0000   0.3641
   4.800   1.0993   0.01883   0.01218  -0.1322  0.6658  1.0000  -1.4167   0.0000   0.0000   0.0000   0.3626
   4.900   1.1116   0.01873   0.01206  -0.1322  0.6631  1.0000  -1.4352   0.0000   0.0000   0.0000   0.3612
   5.000   1.1261   0.01852   0.01184  -0.1326  0.6612  1.0000  -1.4564   0.0000   0.0000   0.0000   0.3598
   5.100   1.1363   0.01853   0.01186  -0.1323  0.6579  1.0000  -1.4744   0.0000   0.0000   0.0000   0.3584
   5.200   1.1448   0.01859   0.01195  -0.1319  0.6538  1.0000  -1.4910   0.0000   0.0000   0.0000   0.3570
   5.300   1.1583   0.01843   0.01177  -0.1321  0.6513  1.0000  -1.5130   0.0000   0.0000   0.0000   0.3557
   5.400   1.1736   0.01820   0.01151  -0.1326  0.6494  1.0000  -1.5376   0.0000   0.0000   0.0000   0.3545
   5.500   1.1782   0.01844   0.01179  -0.1316  0.6440  1.0000  -1.5507   0.0000   0.0000   0.0000   0.3531
   5.600   1.1910   0.01831   0.01165  -0.1317  0.6410  1.0000  -1.5730   0.0000   0.0000   0.0000   0.3518
   5.700   1.2060   0.01810   0.01141  -0.1321  0.6388  1.0000  -1.6002   0.0000   0.0000   0.0000   0.3507
   5.800   1.2110   0.01830   0.01167  -0.1312  0.6334  1.0000  -1.6158   0.0000   0.0000   0.0000   0.3493
   5.900   1.2237   0.01817   0.01153  -0.1313  0.6301  1.0000  -1.6410   0.0000   0.0000   0.0000   0.3481
   6.000   1.2363   0.01807   0.01141  -0.1314  0.6270  1.0000  -1.6682   0.0000   0.0000   0.0000   0.3469
   6.100   1.2431   0.01818   0.01156  -0.1307  0.6218  1.0000  -1.6893   0.0000   0.0000   0.0000   0.3456
   6.200   1.2563   0.01805   0.01141  -0.1308  0.6186  1.0000  -1.7195   0.0000   0.0000   0.0000   0.3445
   6.300   1.2648   0.01811   0.01149  -0.1304  0.6139  1.0000  -1.7442   0.0000   0.0000   0.0000   0.3433
   6.400   1.2748   0.01810   0.01148  -0.1301  0.6095  1.0000  -1.7736   0.0000   0.0000   0.0000   0.3421
   6.500   1.2890   0.01795   0.01129  -0.1304  0.6064  1.0000  -1.8111   0.0000   0.0000   0.0000   0.3411
   6.600   1.2942   0.01812   0.01153  -0.1294  0.6005  1.0000  -1.8345   0.0000   0.0000   0.0000   0.3398
   6.700   1.3069   0.01803   0.01140  -0.1296  0.5966  1.0000  -1.8700   0.0000   0.0000   0.0000   0.3388
   6.800   1.3139   0.01814   0.01154  -0.1289  0.5912  1.0000  -1.8973   0.0000   0.0000   0.0000   0.3375
   6.900   1.3249   0.01810   0.01149  -0.1287  0.5866  1.0000  -1.9319   0.0000   0.0000   0.0000   0.3365
   7.000   1.3334   0.01817   0.01157  -0.1282  0.5815  1.0000  -1.9626   0.0000   0.0000   0.0000   0.3353
   7.100   1.3429   0.01819   0.01159  -0.1279  0.5763  1.0000  -1.9951   0.0000   0.0000   0.0000   0.3342
   7.200   1.3521   0.01823   0.01163  -0.1275  0.5712  1.0000  -2.0286   0.0000   0.0000   0.0000   0.3331
   7.300   1.3608   0.01829   0.01169  -0.1270  0.5656  1.0000  -2.0615   0.0000   0.0000   0.0000   0.3320
   7.400   1.3697   0.01835   0.01175  -0.1266  0.5602  1.0000  -2.0950   0.0000   0.0000   0.0000   0.3310
   7.500   1.3781   0.01841   0.01182  -0.1261  0.5544  1.0000  -2.1279   0.0000   0.0000   0.0000   0.3299
   7.600   1.3862   0.01850   0.01191  -0.1256  0.5486  1.0000  -2.1616   0.0000   0.0000   0.0000   0.3288
   7.700   1.3950   0.01856   0.01195  -0.1251  0.5428  1.0000  -2.1971   0.0000   0.0000   0.0000   0.3277
   7.800   1.4020   0.01869   0.01209  -0.1244  0.5365  1.0000  -2.2291   0.0000   0.0000   0.0000   0.3266
   7.900   1.4116   0.01874   0.01211  -0.1241  0.5308  1.0000  -2.2666   0.0000   0.0000   0.0000   0.3256
   8.000   1.4170   0.01892   0.01231  -0.1231  0.5239  1.0000  -2.2961   0.0000   0.0000   0.0000   0.3245
   8.100   1.4258   0.01900   0.01236  -0.1227  0.5179  1.0000  -2.3323   0.0000   0.0000   0.0000   0.3235
   8.200   1.4316   0.01917   0.01254  -0.1218  0.5109  1.0000  -2.3629   0.0000   0.0000   0.0000   0.3223
   8.300   1.4382   0.01932   0.01268  -0.1210  0.5043  1.0000  -2.4051   0.0000   0.0000   0.0000   0.3213
   8.400   1.4460   0.01944   0.01277  -0.1204  0.4978  1.0000  -2.4509   0.0000   0.0000   0.0000   0.3202
   8.500   1.4504   0.01965   0.01300  -0.1194  0.4905  1.0000  -2.4884   0.0000   0.0000   0.0000   0.3191
   8.600   1.4568   0.01982   0.01314  -0.1186  0.4838  1.0000  -2.5314   0.0000   0.0000   0.0000   0.3180
   8.700   1.4624   0.02001   0.01330  -0.1177  0.4768  1.0000  -2.5748   0.0000   0.0000   0.0000   0.3169
   8.800   1.4660   0.02023   0.01353  -0.1165  0.4698  1.0000  -2.6131   0.0000   0.0000   0.0000   0.3157
   8.900   1.4716   0.02043   0.01368  -0.1156  0.4632  1.0000  -2.6572   0.0000   0.0000   0.0000   0.3146
   9.000   1.4749   0.02068   0.01393  -0.1143  0.4560  1.0000  -2.6949   0.0000   0.0000   0.0000   0.3135
   9.100   1.4788   0.02094   0.01418  -0.1132  0.4491  1.0000  -2.7346   0.0000   0.0000   0.0000   0.3123
   9.200   1.4841   0.02118   0.01438  -0.1123  0.4425  1.0000  -2.7782   0.0000   0.0000   0.0000   0.3113
   9.300   1.4864   0.02150   0.01471  -0.1110  0.4353  1.0000  -2.8139   0.0000   0.0000   0.0000   0.3101
   9.400   1.4903   0.02180   0.01499  -0.1100  0.4285  1.0000  -2.8539   0.0000   0.0000   0.0000   0.3091
   9.500   1.4940   0.02210   0.01527  -0.1089  0.4218  1.0000  -2.8939   0.0000   0.0000   0.0000   0.3080
   9.600   1.4966   0.02246   0.01563  -0.1078  0.4147  1.0000  -2.9305   0.0000   0.0000   0.0000   0.3069
   9.700   1.5003   0.02279   0.01593  -0.1067  0.4081  1.0000  -2.9704   0.0000   0.0000   0.0000   0.3059
   9.800   1.5029   0.02316   0.01629  -0.1056  0.4012  1.0000  -3.0074   0.0000   0.0000   0.0000   0.3048
   9.900   1.5055   0.02355   0.01668  -0.1045  0.3944  1.0000  -3.0446   0.0000   0.0000   0.0000   0.3038
  10.000   1.5088   0.02393   0.01701  -0.1035  0.3880  1.0000  -3.0841   0.0000   0.0000   0.0000   0.3028
  10.100   1.5107   0.02436   0.01746  -0.1024  0.3810  1.0000  -3.1191   0.0000   0.0000   0.0000   0.3018
  10.200   1.5132   0.02479   0.01787  -0.1013  0.3744  1.0000  -3.1563   0.0000   0.0000   0.0000   0.3008
  10.300   1.5156   0.02523   0.01828  -0.1003  0.3679  1.0000  -3.1935   0.0000   0.0000   0.0000   0.2998
  10.400   1.5175   0.02570   0.01877  -0.0992  0.3611  1.0000  -3.2288   0.0000   0.0000   0.0000   0.2989
  10.500   1.5198   0.02616   0.01921  -0.0982  0.3548  1.0000  -3.2658   0.0000   0.0000   0.0000   0.2979
  10.600   1.5215   0.02666   0.01971  -0.0972  0.3481  1.0000  -3.3011   0.0000   0.0000   0.0000   0.2970
  10.700   1.5233   0.02717   0.02022  -0.0962  0.3416  1.0000  -3.3365   0.0000   0.0000   0.0000   0.2960
  10.800   1.5252   0.02769   0.02069  -0.0952  0.3355  1.0000  -3.3727   0.0000   0.0000   0.0000   0.2951
  10.900   1.5266   0.02824   0.02126  -0.0942  0.3287  1.0000  -3.4069   0.0000   0.0000   0.0000   0.2942
  11.000   1.5282   0.02879   0.02180  -0.0932  0.3224  1.0000  -3.4420   0.0000   0.0000   0.0000   0.2933
  11.100   1.5295   0.02937   0.02236  -0.0922  0.3161  1.0000  -3.4763   0.0000   0.0000   0.0000   0.2924
  11.200   1.5307   0.02997   0.02297  -0.0912  0.3096  1.0000  -3.5102   0.0000   0.0000   0.0000   0.2916
  11.300   1.5318   0.03057   0.02354  -0.0903  0.3036  1.0000  -3.5443   0.0000   0.0000   0.0000   0.2907
  11.400   1.5328   0.03121   0.02419  -0.0893  0.2970  1.0000  -3.5775   0.0000   0.0000   0.0000   0.2899
  11.500   1.5338   0.03185   0.02482  -0.0884  0.2908  1.0000  -3.6109   0.0000   0.0000   0.0000   0.2890
  11.600   1.5343   0.03252   0.02547  -0.0875  0.2849  1.0000  -3.6434   0.0000   0.0000   0.0000   0.2882
  11.700   1.5351   0.03320   0.02617  -0.0866  0.2783  1.0000  -3.6759   0.0000   0.0000   0.0000   0.2874
  11.800   1.5356   0.03390   0.02685  -0.0857  0.2723  1.0000  -3.7081   0.0000   0.0000   0.0000   0.2866
  11.900   1.5359   0.03462   0.02756  -0.0848  0.2662  1.0000  -3.7395   0.0000   0.0000   0.0000   0.2858
  12.000   1.5364   0.03536   0.02830  -0.0839  0.2599  1.0000  -3.7712   0.0000   0.0000   0.0000   0.2850
  12.100   1.5363   0.03612   0.02904  -0.0830  0.2543  1.0000  -3.8018   0.0000   0.0000   0.0000   0.2842
  12.200   1.5365   0.03690   0.02982  -0.0822  0.2480  1.0000  -3.8325   0.0000   0.0000   0.0000   0.2835
  12.300   1.5365   0.03769   0.03061  -0.0814  0.2419  1.0000  -3.8630   0.0000   0.0000   0.0000   0.2827
  12.400   1.5360   0.03852   0.03141  -0.0805  0.2365  1.0000  -3.8918   0.0000   0.0000   0.0000   0.2820
  12.500   1.5360   0.03934   0.03224  -0.0797  0.2302  1.0000  -3.9219   0.0000   0.0000   0.0000   0.2813
  12.600   1.5356   0.04019   0.03308  -0.0789  0.2246  1.0000  -3.9509   0.0000   0.0000   0.0000   0.2805
  12.700   1.5349   0.04108   0.03395  -0.0781  0.2190  1.0000  -3.9790   0.0000   0.0000   0.0000   0.2798
  12.800   1.5347   0.04196   0.03484  -0.0774  0.2130  1.0000  -4.0080   0.0000   0.0000   0.0000   0.2792
  12.900   1.5337   0.04290   0.03575  -0.0766  0.2078  1.0000  -4.0352   0.0000   0.0000   0.0000   0.2785
  13.000   1.5332   0.04384   0.03670  -0.0759  0.2020  1.0000  -4.0632   0.0000   0.0000   0.0000   0.2778
  13.100   1.5325   0.04480   0.03765  -0.0752  0.1964  1.0000  -4.0907   0.0000   0.0000   0.0000   0.2772
  13.200   1.5312   0.04581   0.03863  -0.0745  0.1915  1.0000  -4.1164   0.0000   0.0000   0.0000   0.2765
  13.300   1.5307   0.04679   0.03963  -0.0739  0.1858  1.0000  -4.1440   0.0000   0.0000   0.0000   0.2759
  13.400   1.5296   0.04783   0.04064  -0.0732  0.1808  1.0000  -4.1700   0.0000   0.0000   0.0000   0.2753
  13.500   1.5285   0.04888   0.04169  -0.0726  0.1757  1.0000  -4.1958   0.0000   0.0000   0.0000   0.2748
  13.600   1.5277   0.04993   0.04274  -0.0720  0.1705  1.0000  -4.2222   0.0000   0.0000   0.0000   0.2742
  13.700   1.5260   0.05105   0.04382  -0.0714  0.1663  1.0000  -4.2474   0.0000   0.0000   0.0000   0.2736
  13.800   1.5255   0.05212   0.04491  -0.0709  0.1610  1.0000  -4.2764   0.0000   0.0000   0.0000   0.2731
  13.900   1.5240   0.05325   0.04601  -0.0704  0.1568  1.0000  -4.3029   0.0000   0.0000   0.0000   0.2726
  14.000   1.5231   0.05437   0.04714  -0.0699  0.1521  1.0000  -4.3309   0.0000   0.0000   0.0000   0.2721
  14.100   1.5220   0.05551   0.04826  -0.0694  0.1479  1.0000  -4.3578   0.0000   0.0000   0.0000   0.2716
  14.200   1.5208   0.05665   0.04941  -0.0689  0.1438  1.0000  -4.3850   0.0000   0.0000   0.0000   0.2711
  14.300   1.5199   0.05780   0.05055  -0.0685  0.1398  1.0000  -4.4122   0.0000   0.0000   0.0000   0.2706
  14.400   1.5187   0.05897   0.05171  -0.0681  0.1361  1.0000  -4.4393   0.0000   0.0000   0.0000   0.2701
  14.500   1.5178   0.06013   0.05287  -0.0677  0.1324  1.0000  -4.4665   0.0000   0.0000   0.0000   0.2697
  14.600   1.5169   0.06131   0.05405  -0.0673  0.1289  1.0000  -4.4939   0.0000   0.0000   0.0000   0.2692
  14.700   1.5160   0.06248   0.05522  -0.0669  0.1257  1.0000  -4.5210   0.0000   0.0000   0.0000   0.2688
  14.800   1.5153   0.06366   0.05642  -0.0666  0.1223  1.0000  -4.5489   0.0000   0.0000   0.0000   0.2684
  14.900   1.5142   0.06485   0.05757  -0.0662  0.1197  1.0000  -4.5760   0.0000   0.0000   0.0000   0.2679
  15.000   1.5140   0.06602   0.05879  -0.0659  0.1163  1.0000  -4.6040   0.0000   0.0000   0.0000   0.2675
  15.100   1.5132   0.06721   0.05995  -0.0656  0.1138  1.0000  -4.6318   0.0000   0.0000   0.0000   0.2671
  15.200   1.5128   0.06837   0.06114  -0.0653  0.1110  1.0000  -4.6594   0.0000   0.0000   0.0000   0.2667
  15.300   1.5124   0.06955   0.06234  -0.0651  0.1084  1.0000  -4.6875   0.0000   0.0000   0.0000   0.2663
  15.400   1.5118   0.07070   0.06343  -0.0647  0.1063  1.0000  -4.7162   0.0000   0.0000   0.0000   0.2659
  15.500   1.5116   0.07190   0.06470  -0.0645  0.1036  1.0000  -4.7430   0.0000   0.0000   0.0000   0.2656
  15.600   1.5112   0.07307   0.06588  -0.0643  0.1013  1.0000  -4.7713   0.0000   0.0000   0.0000   0.2652
  15.700   1.5110   0.07417   0.06691  -0.0640  0.0995  1.0000  -4.8016   0.0000   0.0000   0.0000   0.2648
  15.800   1.5107   0.07541   0.06824  -0.0638  0.0970  1.0000  -4.8271   0.0000   0.0000   0.0000   0.2645
  15.900   1.5105   0.07659   0.06943  -0.0636  0.0950  1.0000  -4.8555   0.0000   0.0000   0.0000   0.2641
  16.000   1.5108   0.07764   0.07043  -0.0634  0.0933  1.0000  -4.8873   0.0000   0.0000   0.0000   0.2637
  16.100   1.5105   0.07889   0.07175  -0.0632  0.0912  1.0000  -4.9122   0.0000   0.0000   0.0000   0.2634
  16.200   1.5105   0.08008   0.07296  -0.0631  0.0892  1.0000  -4.9400   0.0000   0.0000   0.0000   0.2631
  16.300   1.5109   0.08114   0.07400  -0.0628  0.0876  1.0000  -4.9729   0.0000   0.0000   0.0000   0.2627
  16.400   1.5112   0.08226   0.07514  -0.0626  0.0858  1.0000  -5.0076   0.0000   0.0000   0.0000   0.2623
  16.500   1.5109   0.08352   0.07646  -0.0626  0.0840  1.0000  -5.0382   0.0000   0.0000   0.0000   0.2620
  16.600   1.5112   0.08465   0.07759  -0.0624  0.0824  1.0000  -5.0738   0.0000   0.0000   0.0000   0.2617
  16.700   1.5129   0.08550   0.07837  -0.0622  0.0809  1.0000  -5.1204   0.0000   0.0000   0.0000   0.2613
  16.800   1.5120   0.08687   0.07984  -0.0621  0.0792  1.0000  -5.1494   0.0000   0.0000   0.0000   0.2610
  16.900   1.5117   0.08813   0.08114  -0.0621  0.0776  1.0000  -5.1829   0.0000   0.0000   0.0000   0.2608
  17.000   1.5124   0.08919   0.08219  -0.0619  0.0762  1.0000  -5.2235   0.0000   0.0000   0.0000   0.2604
  17.100   1.5150   0.08988   0.08279  -0.0616  0.0747  1.0000  -5.2754   0.0000   0.0000   0.0000   0.2599
  17.200   1.5131   0.09145   0.08449  -0.0617  0.0733  1.0000  -5.2977   0.0000   0.0000   0.0000   0.2598
  17.300   1.5127   0.09275   0.08584  -0.0617  0.0718  1.0000  -5.3301   0.0000   0.0000   0.0000   0.2596
  17.400   1.5136   0.09378   0.08686  -0.0617  0.0705  1.0000  -5.3718   0.0000   0.0000   0.0000   0.2593
  17.500   1.5177   0.09423   0.08720  -0.0613  0.0691  1.0000  -5.4326   0.0000   0.0000   0.0000   0.2587
  17.600   1.5150   0.09595   0.08906  -0.0615  0.0679  1.0000  -5.4494   0.0000   0.0000   0.0000   0.2587
  17.700   1.5141   0.09736   0.09054  -0.0616  0.0666  1.0000  -5.4778   0.0000   0.0000   0.0000   0.2585
  17.800   1.5148   0.09847   0.09167  -0.0616  0.0654  1.0000  -5.5169   0.0000   0.0000   0.0000   0.2583
  17.900   1.5181   0.09908   0.09221  -0.0614  0.0642  1.0000  -5.5730   0.0000   0.0000   0.0000   0.2578
  18.000   1.5193   0.10009   0.09323  -0.0612  0.0631  1.0000  -5.6130   0.0000   0.0000   0.0000   0.2574
  18.100   1.5175   0.10168   0.09493  -0.0615  0.0620  1.0000  -5.6337   0.0000   0.0000   0.0000   0.2574
  18.200   1.5172   0.10298   0.09629  -0.0616  0.0610  1.0000  -5.6649   0.0000   0.0000   0.0000   0.2572
  18.300   1.5189   0.10392   0.09724  -0.0615  0.0600  1.0000  -5.7088   0.0000   0.0000   0.0000   0.2569
  18.400   1.5244   0.10418   0.09741  -0.0611  0.0589  1.0000  -5.7763   0.0000   0.0000   0.0000   0.2563
  18.500   1.5268   0.10498   0.09822  -0.0609  0.0580  1.0000  -5.8216   0.0000   0.0000   0.0000   0.2559
  18.600   1.5245   0.10665   0.10000  -0.0612  0.0572  1.0000  -5.8379   0.0000   0.0000   0.0000   0.2559
  18.700   1.5238   0.10804   0.10148  -0.0614  0.0563  1.0000  -5.8643   0.0000   0.0000   0.0000   0.2557
  18.800   1.5245   0.10919   0.10266  -0.0615  0.0555  1.0000  -5.9002   0.0000   0.0000   0.0000   0.2555
  18.900   1.5272   0.10995   0.10343  -0.0614  0.0547  1.0000  -5.9495   0.0000   0.0000   0.0000   0.2552
  19.000   1.5349   0.10984   0.10322  -0.0609  0.0538  1.0000  -6.0299   0.0000   0.0000   0.0000   0.2544
  19.100   1.5380   0.11054   0.10393  -0.0607  0.0530  1.0000  -6.0783   0.0000   0.0000   0.0000   0.2539
  19.200   1.5346   0.11237   0.10589  -0.0611  0.0525  1.0000  -6.0872   0.0000   0.0000   0.0000   0.2541
  19.300   1.5325   0.11403   0.10765  -0.0615  0.0519  1.0000  -6.1033   0.0000   0.0000   0.0000   0.2541
  19.400   1.5313   0.11552   0.10922  -0.0618  0.0513  1.0000  -6.1261   0.0000   0.0000   0.0000   0.2541
  19.500   1.5313   0.11681   0.11055  -0.0621  0.0506  1.0000  -6.1573   0.0000   0.0000   0.0000   0.2540
  19.600   1.5327   0.11783   0.11160  -0.0623  0.0500  1.0000  -6.1985   0.0000   0.0000   0.0000   0.2538
  19.700   1.5368   0.11836   0.11210  -0.0622  0.0494  1.0000  -6.2584   0.0000   0.0000   0.0000   0.2534
  19.800   1.5494   0.11740   0.11100  -0.0611  0.0485  1.0000  -6.3699   0.0000   0.0000   0.0000   0.2522
  19.900   1.5437   0.11968   0.11342  -0.0619  0.0482  1.0000  -6.3630   0.0000   0.0000   0.0000   0.2526
  20.000   1.5387   0.12183   0.11571  -0.0627  0.0478  1.0000  -6.3600   0.0000   0.0000   0.0000   0.2530


