xflr5 v6.57

 Calculated polar for: QX0023

 1 1 Reynolds number fixed          Mach number fixed         

 xtrf =   1.000 (top)        1.000 (bottom)
 Mach =   0.000     Re =     0.480 e 6     Ncrit =   9.000

  alpha     CL        CD       CDp       Cm    Top Xtr Bot Xtr   Cpmin    Chinge    XCp    
 ------- -------- --------- --------- -------- ------- ------- -------- --------- ---------
 -10.000  -0.3785   0.01192   0.00810  -0.1257  0.8404  0.0267  -5.0167   0.0000   0.0000   0.0000  -0.1003
  -9.900  -0.3801   0.01061   0.00661  -0.1261  0.8389  0.0268  -5.0359   0.0000   0.0000   0.0000  -0.0999
  -9.600  -0.4141   0.02798   0.02314  -0.1324  0.8456  0.0268  -5.4034   0.0000   0.0000   0.0000  -0.0902
  -9.500  -0.4081   0.02684   0.02183  -0.1327  0.8438  0.0269  -5.3795   0.0000   0.0000   0.0000  -0.0958
  -9.400  -0.4018   0.02559   0.02048  -0.1329  0.8422  0.0271  -5.3462   0.0000   0.0000   0.0000  -0.1015
  -9.300  -0.3936   0.02488   0.01971  -0.1331  0.8408  0.0273  -5.2831   0.0000   0.0000   0.0000  -0.1089
  -9.200  -0.3845   0.02438   0.01917  -0.1332  0.8396  0.0275  -5.2089   0.0000   0.0000   0.0000  -0.1173
  -9.100  -0.3751   0.02397   0.01872  -0.1332  0.8385  0.0277  -5.1310   0.0000   0.0000   0.0000  -0.1264
  -9.000  -0.3654   0.02363   0.01834  -0.1333  0.8372  0.0279  -5.0505   0.0000   0.0000   0.0000  -0.1363
  -8.900  -0.3555   0.02333   0.01803  -0.1334  0.8356  0.0282  -4.9680   0.0000   0.0000   0.0000  -0.1469
  -8.800  -0.3455   0.02305   0.01773  -0.1335  0.8341  0.0284  -4.8854   0.0000   0.0000   0.0000  -0.1583
  -8.700  -0.3356   0.02272   0.01736  -0.1336  0.8327  0.0287  -4.8074   0.0000   0.0000   0.0000  -0.1702
  -8.600  -0.3258   0.02234   0.01690  -0.1337  0.8314  0.0291  -4.7346   0.0000   0.0000   0.0000  -0.1827
  -8.500  -0.3161   0.02190   0.01638  -0.1337  0.8303  0.0294  -4.6665   0.0000   0.0000   0.0000  -0.1959
  -8.400  -0.3064   0.02143   0.01580  -0.1338  0.8292  0.0297  -4.6021   0.0000   0.0000   0.0000  -0.2099
  -8.300  -0.2966   0.02095   0.01521  -0.1339  0.8279  0.0300  -4.5399   0.0000   0.0000   0.0000  -0.2250
  -8.200  -0.2867   0.02047   0.01464  -0.1339  0.8263  0.0303  -4.4784   0.0000   0.0000   0.0000  -0.2412
  -8.100  -0.2767   0.02003   0.01410  -0.1340  0.8249  0.0306  -4.4151   0.0000   0.0000   0.0000  -0.2588
  -8.000  -0.2664   0.01966   0.01362  -0.1340  0.8235  0.0308  -4.3490   0.0000   0.0000   0.0000  -0.2781
  -7.900  -0.2559   0.01937   0.01322  -0.1340  0.8223  0.0310  -4.2794   0.0000   0.0000   0.0000  -0.2995
  -7.800  -0.2464   0.01862   0.01241  -0.1341  0.8212  0.0313  -4.2300   0.0000   0.0000   0.0000  -0.3204
  -7.700  -0.2362   0.01819   0.01196  -0.1341  0.8202  0.0316  -4.1636   0.0000   0.0000   0.0000  -0.3447
  -7.600  -0.2258   0.01789   0.01166  -0.1342  0.8190  0.0319  -4.0920   0.0000   0.0000   0.0000  -0.3721
  -7.500  -0.2152   0.01764   0.01140  -0.1342  0.8175  0.0322  -4.0198   0.0000   0.0000   0.0000  -0.4025
  -7.400  -0.2045   0.01741   0.01115  -0.1343  0.8160  0.0326  -3.9484   0.0000   0.0000   0.0000  -0.4363
  -7.300  -0.1937   0.01717   0.01088  -0.1343  0.8147  0.0329  -3.8784   0.0000   0.0000   0.0000  -0.4741
  -7.200  -0.1829   0.01693   0.01061  -0.1344  0.8135  0.0333  -3.8097   0.0000   0.0000   0.0000  -0.5165
  -7.100  -0.1721   0.01671   0.01033  -0.1344  0.8124  0.0337  -3.7411   0.0000   0.0000   0.0000  -0.5646
  -7.000  -0.1611   0.01649   0.01006  -0.1345  0.8114  0.0342  -3.6732   0.0000   0.0000   0.0000  -0.6196
  -6.800  -0.1391   0.01612   0.00957  -0.1345  0.8089  0.0352  -3.5398   0.0000   0.0000   0.0000  -0.7566
  -6.700  -0.1281   0.01591   0.00931  -0.1346  0.8074  0.0356  -3.4751   0.0000   0.0000   0.0000  -0.8419
  -6.600  -0.1179   0.01546   0.00888  -0.1346  0.8060  0.0361  -3.4131   0.0000   0.0000   0.0000  -0.9360
  -6.500  -0.1071   0.01523   0.00865  -0.1346  0.8048  0.0366  -3.3431   0.0000   0.0000   0.0000  -1.0551
  -6.400  -0.0961   0.01504   0.00846  -0.1347  0.8036  0.0371  -3.2759   0.0000   0.0000   0.0000  -1.2040
  -6.300  -0.0850   0.01487   0.00826  -0.1347  0.8026  0.0376  -3.2134   0.0000   0.0000   0.0000  -1.3932
  -6.200  -0.0739   0.01470   0.00806  -0.1348  0.8016  0.0381  -3.1524   0.0000   0.0000   0.0000  -1.6409
  -6.100  -0.0627   0.01453   0.00786  -0.1348  0.8005  0.0387  -3.0930   0.0000   0.0000   0.0000  -1.9750
  -6.000  -0.0517   0.01437   0.00767  -0.1349  0.7989  0.0393  -3.0347   0.0000   0.0000   0.0000  -2.4478
  -5.900  -0.0406   0.01422   0.00749  -0.1349  0.7975  0.0399  -2.9765   0.0000   0.0000   0.0000  -3.1889
  -5.800  -0.0295   0.01403   0.00727  -0.1349  0.7962  0.0404  -2.9199   0.0000   0.0000   0.0000  -4.4754
  -5.700  -0.0188   0.01373   0.00698  -0.1350  0.7949  0.0411  -2.8623   0.0000   0.0000   0.0000  -7.1454
  -5.600  -0.0077   0.01356   0.00682  -0.1350  0.7938  0.0418  -2.8000   0.0000   0.0000   0.0000  -17.7780
  -5.500   0.0036   0.01343   0.00667  -0.1351  0.7928  0.0426  -2.7375   0.0000   0.0000   0.0000  39.4481
  -5.400   0.0149   0.01331   0.00653  -0.1352  0.7918  0.0434  -2.6759   0.0000   0.0000   0.0000   9.5742
  -5.300   0.0262   0.01321   0.00640  -0.1352  0.7905  0.0444  -2.6162   0.0000   0.0000   0.0000   5.5703
  -5.200   0.0375   0.01313   0.00629  -0.1352  0.7890  0.0452  -2.5571   0.0000   0.0000   0.0000   3.9643
  -5.100   0.0482   0.01287   0.00606  -0.1353  0.7876  0.0462  -2.5007   0.0000   0.0000   0.0000   3.1355
  -5.000   0.0594   0.01273   0.00593  -0.1354  0.7863  0.0472  -2.4397   0.0000   0.0000   0.0000   2.5933
  -4.900   0.0707   0.01261   0.00581  -0.1354  0.7851  0.0482  -2.3794   0.0000   0.0000   0.0000   2.2179
  -4.800   0.0821   0.01250   0.00567  -0.1355  0.7840  0.0493  -2.3206   0.0000   0.0000   0.0000   1.9439
  -4.700   0.0937   0.01241   0.00554  -0.1356  0.7829  0.0503  -2.2626   0.0000   0.0000   0.0000   1.7349
  -4.600   0.1049   0.01223   0.00535  -0.1357  0.7820  0.0515  -2.2103   0.0000   0.0000   0.0000   1.5755
  -4.500   0.1160   0.01210   0.00525  -0.1357  0.7805  0.0527  -2.1572   0.0000   0.0000   0.0000   1.4489
  -4.400   0.1272   0.01200   0.00516  -0.1358  0.7790  0.0540  -2.1043   0.0000   0.0000   0.0000   1.3428
  -4.300   0.1386   0.01192   0.00506  -0.1358  0.7776  0.0556  -2.0521   0.0000   0.0000   0.0000   1.2529
  -4.200   0.1499   0.01178   0.00492  -0.1359  0.7763  0.0572  -2.0010   0.0000   0.0000   0.0000   1.1774
  -4.100   0.1613   0.01167   0.00482  -0.1360  0.7751  0.0589  -1.9477   0.0000   0.0000   0.0000   1.1119
  -4.000   0.1728   0.01158   0.00472  -0.1361  0.7740  0.0609  -1.8953   0.0000   0.0000   0.0000   1.0543
  -3.900   0.1844   0.01148   0.00459  -0.1362  0.7730  0.0629  -1.8443   0.0000   0.0000   0.0000   1.0039
  -3.800   0.1959   0.01137   0.00449  -0.1363  0.7720  0.0651  -1.7923   0.0000   0.0000   0.0000   0.9598
  -3.700   0.2071   0.01129   0.00442  -0.1363  0.7703  0.0677  -1.7420   0.0000   0.0000   0.0000   0.9211
  -3.600   0.2184   0.01117   0.00433  -0.1364  0.7688  0.0706  -1.6919   0.0000   0.0000   0.0000   0.8866
  -3.500   0.2298   0.01109   0.00425  -0.1365  0.7673  0.0741  -1.6414   0.0000   0.0000   0.0000   0.8549
  -3.400   0.2412   0.01098   0.00416  -0.1366  0.7660  0.0781  -1.5913   0.0000   0.0000   0.0000   0.8263
  -3.300   0.2527   0.01088   0.00407  -0.1367  0.7648  0.0830  -1.5415   0.0000   0.0000   0.0000   0.8000
  -3.200   0.2643   0.01078   0.00398  -0.1368  0.7637  0.0891  -1.4917   0.0000   0.0000   0.0000   0.7759
  -3.100   0.2760   0.01068   0.00389  -0.1369  0.7627  0.0965  -1.4419   0.0000   0.0000   0.0000   0.7539
  -3.000   0.2872   0.01057   0.00384  -0.1370  0.7613  0.1055  -1.3931   0.0000   0.0000   0.0000   0.7341
  -2.900   0.2984   0.01047   0.00379  -0.1371  0.7596  0.1165  -1.3447   0.0000   0.0000   0.0000   0.7159
  -2.800   0.3098   0.01038   0.00375  -0.1371  0.7581  0.1289  -1.2988   0.0000   0.0000   0.0000   0.6989
  -2.700   0.3212   0.01028   0.00370  -0.1373  0.7567  0.1424  -1.2540   0.0000   0.0000   0.0000   0.6830
  -2.600   0.3327   0.01020   0.00365  -0.1374  0.7554  0.1560  -1.2091   0.0000   0.0000   0.0000   0.6681
  -2.500   0.3443   0.01012   0.00360  -0.1375  0.7542  0.1698  -1.1642   0.0000   0.0000   0.0000   0.6541
  -2.400   0.3560   0.01005   0.00355  -0.1376  0.7531  0.1836  -1.1195   0.0000   0.0000   0.0000   0.6410
  -2.300   0.3675   0.00998   0.00352  -0.1377  0.7518  0.1972  -1.0754   0.0000   0.0000   0.0000   0.6288
  -2.200   0.3786   0.00991   0.00351  -0.1378  0.7500  0.2110  -1.0324   0.0000   0.0000   0.0000   0.6176
  -2.100   0.3899   0.00984   0.00349  -0.1379  0.7484  0.2252  -0.9894   0.0000   0.0000   0.0000   0.6069
  -2.000   0.4014   0.00977   0.00347  -0.1380  0.7469  0.2404  -0.9466   0.0000   0.0000   0.0000   0.5967
  -1.900   0.4129   0.00971   0.00343  -0.1381  0.7455  0.2561  -0.9038   0.0000   0.0000   0.0000   0.5871
  -1.800   0.4245   0.00963   0.00339  -0.1382  0.7442  0.2721  -0.8617   0.0000   0.0000   0.0000   0.5779
  -1.700   0.4362   0.00956   0.00336  -0.1383  0.7431  0.2896  -0.8228   0.0000   0.0000   0.0000   0.5692
  -1.600   0.4476   0.00949   0.00335  -0.1384  0.7416  0.3088  -0.7848   0.0000   0.0000   0.0000   0.5611
  -1.500   0.4587   0.00942   0.00335  -0.1385  0.7398  0.3299  -0.7845   0.0000   0.0000   0.0000   0.5535
  -1.400   0.4700   0.00934   0.00334  -0.1386  0.7381  0.3522  -0.7916   0.0000   0.0000   0.0000   0.5462
  -1.300   0.4814   0.00926   0.00333  -0.1387  0.7365  0.3763  -0.7988   0.0000   0.0000   0.0000   0.5392
  -1.200   0.4928   0.00917   0.00331  -0.1388  0.7351  0.4028  -0.8062   0.0000   0.0000   0.0000   0.5325
  -1.100   0.5044   0.00908   0.00329  -0.1389  0.7338  0.4318  -0.8137   0.0000   0.0000   0.0000   0.5260
  -1.000   0.5159   0.00899   0.00327  -0.1390  0.7326  0.4623  -0.8213   0.0000   0.0000   0.0000   0.5199
  -0.900   0.5269   0.00890   0.00330  -0.1391  0.7308  0.4942  -0.8287   0.0000   0.0000   0.0000   0.5141
  -0.800   0.5379   0.00882   0.00332  -0.1391  0.7289  0.5266  -0.8363   0.0000   0.0000   0.0000   0.5085
  -0.700   0.5490   0.00875   0.00333  -0.1391  0.7272  0.5569  -0.8441   0.0000   0.0000   0.0000   0.5031
  -0.600   0.5602   0.00868   0.00333  -0.1391  0.7256  0.5855  -0.8521   0.0000   0.0000   0.0000   0.4979
  -0.500   0.5715   0.00861   0.00333  -0.1391  0.7242  0.6128  -0.8602   0.0000   0.0000   0.0000   0.4928
  -0.400   0.5827   0.00855   0.00334  -0.1391  0.7229  0.6403  -0.8683   0.0000   0.0000   0.0000   0.4879
  -0.300   0.5938   0.00852   0.00336  -0.1390  0.7214  0.6659  -0.8762   0.0000   0.0000   0.0000   0.4832
  -0.200   0.6045   0.00848   0.00339  -0.1389  0.7193  0.6875  -0.8841   0.0000   0.0000   0.0000   0.4787
  -0.100   0.6154   0.00845   0.00341  -0.1388  0.7174  0.7073  -0.8922   0.0000   0.0000   0.0000   0.4743
   0.000   0.6264   0.00842   0.00341  -0.1387  0.7157  0.7249  -0.9006   0.0000   0.0000   0.0000   0.4701
   0.100   0.6375   0.00839   0.00341  -0.1387  0.7141  0.7413  -0.9093   0.0000   0.0000   0.0000   0.4659
   0.200   0.6486   0.00836   0.00341  -0.1386  0.7128  0.7576  -0.9181   0.0000   0.0000   0.0000   0.4619
   0.300   0.6594   0.00834   0.00342  -0.1384  0.7111  0.7731  -0.9267   0.0000   0.0000   0.0000   0.4581
   0.400   0.6698   0.00832   0.00345  -0.1382  0.7090  0.7881  -0.9352   0.0000   0.0000   0.0000   0.4544
   0.500   0.6803   0.00829   0.00346  -0.1380  0.7070  0.8028  -0.9438   0.0000   0.0000   0.0000   0.4507
   0.600   0.6907   0.00826   0.00347  -0.1378  0.7052  0.8174  -0.9525   0.0000   0.0000   0.0000   0.4472
   0.700   0.7013   0.00824   0.00346  -0.1376  0.7036  0.8326  -0.9614   0.0000   0.0000   0.0000   0.4437
   0.800   0.7117   0.00821   0.00345  -0.1373  0.7021  0.8475  -0.9703   0.0000   0.0000   0.0000   0.4403
   0.900   0.7214   0.00819   0.00347  -0.1369  0.7002  0.8630  -0.9790   0.0000   0.0000   0.0000   0.4371
   1.000   0.7305   0.00815   0.00348  -0.1364  0.6979  0.8797  -0.9876   0.0000   0.0000   0.0000   0.4338
   1.100   0.7397   0.00812   0.00348  -0.1358  0.6959  0.8987  -0.9963   0.0000   0.0000   0.0000   0.4306
   1.200   0.7489   0.00807   0.00346  -0.1353  0.6941  0.9195  -1.0051   0.0000   0.0000   0.0000   0.4275
   1.300   0.7601   0.00803   0.00342  -0.1351  0.6924  0.9441  -1.0153   0.0000   0.0000   0.0000   0.4245
   1.400   0.7763   0.00800   0.00339  -0.1362  0.6907  0.9733  -1.0285   0.0000   0.0000   0.0000   0.4219
   1.500   0.7905   0.00799   0.00339  -0.1369  0.6883  1.0000  -1.0404   0.0000   0.0000   0.0000   0.4195
   1.600   0.8020   0.00801   0.00340  -0.1370  0.6860  1.0000  -1.0508   0.0000   0.0000   0.0000   0.4171
   1.700   0.8136   0.00803   0.00339  -0.1371  0.6840  1.0000  -1.0616   0.0000   0.0000   0.0000   0.4146
   1.800   0.8253   0.00805   0.00338  -0.1372  0.6821  1.0000  -1.0728   0.0000   0.0000   0.0000   0.4123
   1.900   0.8369   0.00808   0.00338  -0.1373  0.6802  1.0000  -1.0842   0.0000   0.0000   0.0000   0.4100
   2.000   0.8479   0.00811   0.00341  -0.1374  0.6776  1.0000  -1.0951   0.0000   0.0000   0.0000   0.4077
   2.100   0.8593   0.00813   0.00343  -0.1374  0.6752  1.0000  -1.1063   0.0000   0.0000   0.0000   0.4056
   2.200   0.8707   0.00815   0.00343  -0.1375  0.6731  1.0000  -1.1180   0.0000   0.0000   0.0000   0.4034
   2.300   0.8823   0.00818   0.00342  -0.1376  0.6712  1.0000  -1.1298   0.0000   0.0000   0.0000   0.4013
   2.400   0.8936   0.00821   0.00344  -0.1377  0.6688  1.0000  -1.1413   0.0000   0.0000   0.0000   0.3993
   2.500   0.9046   0.00823   0.00347  -0.1377  0.6662  1.0000  -1.1528   0.0000   0.0000   0.0000   0.3973
   2.600   0.9158   0.00826   0.00349  -0.1377  0.6637  1.0000  -1.1648   0.0000   0.0000   0.0000   0.3953
   2.700   0.9272   0.00828   0.00349  -0.1378  0.6615  1.0000  -1.1771   0.0000   0.0000   0.0000   0.3934
   2.800   0.9387   0.00832   0.00350  -0.1378  0.6594  1.0000  -1.1897   0.0000   0.0000   0.0000   0.3916
   2.900   0.9495   0.00835   0.00354  -0.1378  0.6564  1.0000  -1.2021   0.0000   0.0000   0.0000   0.3897
   3.000   0.9606   0.00837   0.00356  -0.1378  0.6536  1.0000  -1.2147   0.0000   0.0000   0.0000   0.3879
   3.100   0.9718   0.00841   0.00357  -0.1379  0.6512  1.0000  -1.2275   0.0000   0.0000   0.0000   0.3862
   3.200   0.9832   0.00844   0.00358  -0.1379  0.6490  1.0000  -1.2406   0.0000   0.0000   0.0000   0.3845
   3.300   0.9939   0.00848   0.00363  -0.1379  0.6458  1.0000  -1.2534   0.0000   0.0000   0.0000   0.3828
   3.400   1.0049   0.00851   0.00366  -0.1379  0.6429  1.0000  -1.2664   0.0000   0.0000   0.0000   0.3811
   3.500   1.0160   0.00854   0.00368  -0.1379  0.6403  1.0000  -1.2808   0.0000   0.0000   0.0000   0.3795
   3.600   1.0271   0.00859   0.00370  -0.1379  0.6377  1.0000  -1.2952   0.0000   0.0000   0.0000   0.3779
   3.700   1.0378   0.00862   0.00375  -0.1378  0.6343  1.0000  -1.3093   0.0000   0.0000   0.0000   0.3764
   3.800   1.0486   0.00866   0.00378  -0.1378  0.6312  1.0000  -1.3241   0.0000   0.0000   0.0000   0.3748
   3.900   1.0597   0.00870   0.00379  -0.1378  0.6285  1.0000  -1.3390   0.0000   0.0000   0.0000   0.3733
   4.000   1.0704   0.00874   0.00384  -0.1377  0.6251  1.0000  -1.3537   0.0000   0.0000   0.0000   0.3718
   4.100   1.0811   0.00878   0.00389  -0.1377  0.6216  1.0000  -1.3688   0.0000   0.0000   0.0000   0.3704
   4.200   1.0919   0.00883   0.00391  -0.1376  0.6185  1.0000  -1.3852   0.0000   0.0000   0.0000   0.3690
   4.300   1.1025   0.00888   0.00396  -0.1376  0.6151  1.0000  -1.4014   0.0000   0.0000   0.0000   0.3675
   4.400   1.1131   0.00892   0.00401  -0.1375  0.6112  1.0000  -1.4176   0.0000   0.0000   0.0000   0.3662
   4.500   1.1237   0.00898   0.00404  -0.1374  0.6077  1.0000  -1.4342   0.0000   0.0000   0.0000   0.3648
   4.600   1.1342   0.00903   0.00409  -0.1373  0.6039  1.0000  -1.4510   0.0000   0.0000   0.0000   0.3634
   4.700   1.1446   0.00908   0.00414  -0.1372  0.5998  1.0000  -1.4677   0.0000   0.0000   0.0000   0.3621
   4.800   1.1550   0.00915   0.00418  -0.1371  0.5962  1.0000  -1.4846   0.0000   0.0000   0.0000   0.3608
   4.900   1.1654   0.00920   0.00424  -0.1370  0.5920  1.0000  -1.5029   0.0000   0.0000   0.0000   0.3595
   5.000   1.1757   0.00926   0.00429  -0.1369  0.5878  1.0000  -1.5215   0.0000   0.0000   0.0000   0.3582
   5.100   1.1859   0.00933   0.00434  -0.1367  0.5839  1.0000  -1.5400   0.0000   0.0000   0.0000   0.3570
   5.200   1.1961   0.00939   0.00441  -0.1366  0.5792  1.0000  -1.5590   0.0000   0.0000   0.0000   0.3557
   5.300   1.2061   0.00947   0.00446  -0.1364  0.5748  1.0000  -1.5782   0.0000   0.0000   0.0000   0.3545
   5.400   1.2162   0.00954   0.00453  -0.1363  0.5701  1.0000  -1.5974   0.0000   0.0000   0.0000   0.3533
   5.500   1.2261   0.00962   0.00460  -0.1361  0.5653  1.0000  -1.6182   0.0000   0.0000   0.0000   0.3521
   5.600   1.2359   0.00970   0.00467  -0.1359  0.5605  1.0000  -1.6395   0.0000   0.0000   0.0000   0.3509
   5.700   1.2457   0.00978   0.00475  -0.1357  0.5554  1.0000  -1.6611   0.0000   0.0000   0.0000   0.3497
   5.800   1.2553   0.00987   0.00482  -0.1354  0.5506  1.0000  -1.6840   0.0000   0.0000   0.0000   0.3486
   5.900   1.2649   0.00996   0.00491  -0.1352  0.5450  1.0000  -1.7090   0.0000   0.0000   0.0000   0.3474
   6.000   1.2743   0.01006   0.00499  -0.1349  0.5397  1.0000  -1.7337   0.0000   0.0000   0.0000   0.3463
   6.100   1.2836   0.01016   0.00508  -0.1346  0.5337  1.0000  -1.7597   0.0000   0.0000   0.0000   0.3451
   6.200   1.2927   0.01027   0.00517  -0.1343  0.5281  1.0000  -1.7887   0.0000   0.0000   0.0000   0.3440
   6.300   1.3018   0.01038   0.00526  -0.1340  0.5219  1.0000  -1.8182   0.0000   0.0000   0.0000   0.3429
   6.400   1.3107   0.01050   0.00537  -0.1336  0.5159  1.0000  -1.8476   0.0000   0.0000   0.0000   0.3418
   6.500   1.3194   0.01063   0.00547  -0.1332  0.5096  1.0000  -1.8768   0.0000   0.0000   0.0000   0.3407
   6.600   1.3281   0.01075   0.00558  -0.1329  0.5030  1.0000  -1.9076   0.0000   0.0000   0.0000   0.3396
   6.700   1.3362   0.01090   0.00570  -0.1324  0.4966  1.0000  -1.9376   0.0000   0.0000   0.0000   0.3385
   6.800   1.3446   0.01104   0.00582  -0.1319  0.4895  1.0000  -1.9681   0.0000   0.0000   0.0000   0.3374
   6.900   1.3527   0.01119   0.00595  -0.1315  0.4825  1.0000  -1.9996   0.0000   0.0000   0.0000   0.3363
   7.100   1.3680   0.01152   0.00622  -0.1304  0.4680  1.0000  -2.0619   0.0000   0.0000   0.0000   0.3341
   7.200   1.3753   0.01169   0.00638  -0.1297  0.4607  1.0000  -2.0938   0.0000   0.0000   0.0000   0.3330
   7.400   1.3892   0.01207   0.00669  -0.1284  0.4456  1.0000  -2.1575   0.0000   0.0000   0.0000   0.3308
   7.500   1.3959   0.01226   0.00686  -0.1277  0.4383  1.0000  -2.1891   0.0000   0.0000   0.0000   0.3297
   7.600   1.4016   0.01248   0.00704  -0.1268  0.4313  1.0000  -2.2190   0.0000   0.0000   0.0000   0.3285
   7.700   1.4075   0.01266   0.00720  -0.1260  0.4239  1.0000  -2.2494   0.0000   0.0000   0.0000   0.3274
   7.800   1.4130   0.01287   0.00739  -0.1251  0.4169  1.0000  -2.2792   0.0000   0.0000   0.0000   0.3262
   8.000   1.4239   0.01333   0.00780  -0.1233  0.4026  1.0000  -2.3389   0.0000   0.0000   0.0000   0.3240
   8.100   1.4292   0.01358   0.00802  -0.1224  0.3956  1.0000  -2.3692   0.0000   0.0000   0.0000   0.3229
   8.200   1.4340   0.01385   0.00826  -0.1215  0.3886  1.0000  -2.4098   0.0000   0.0000   0.0000   0.3218
   8.300   1.4398   0.01409   0.00849  -0.1207  0.3815  1.0000  -2.4530   0.0000   0.0000   0.0000   0.3208
   8.400   1.4449   0.01437   0.00874  -0.1199  0.3750  1.0000  -2.4948   0.0000   0.0000   0.0000   0.3197
   8.500   1.4499   0.01465   0.00900  -0.1190  0.3682  1.0000  -2.5366   0.0000   0.0000   0.0000   0.3187
   8.600   1.4554   0.01492   0.00926  -0.1183  0.3616  1.0000  -2.5798   0.0000   0.0000   0.0000   0.3177
   8.700   1.4601   0.01524   0.00954  -0.1174  0.3552  1.0000  -2.6210   0.0000   0.0000   0.0000   0.3167
   8.800   1.4654   0.01553   0.00982  -0.1166  0.3485  1.0000  -2.6641   0.0000   0.0000   0.0000   0.3157
   8.900   1.4705   0.01585   0.01011  -0.1159  0.3422  1.0000  -2.7067   0.0000   0.0000   0.0000   0.3147
   9.000   1.4748   0.01620   0.01044  -0.1150  0.3358  1.0000  -2.7478   0.0000   0.0000   0.0000   0.3138
   9.100   1.4802   0.01651   0.01074  -0.1143  0.3291  1.0000  -2.7915   0.0000   0.0000   0.0000   0.3128
   9.200   1.4846   0.01687   0.01108  -0.1135  0.3229  1.0000  -2.8333   0.0000   0.0000   0.0000   0.3119
   9.300   1.4892   0.01724   0.01142  -0.1127  0.3163  1.0000  -2.8753   0.0000   0.0000   0.0000   0.3109
   9.400   1.4940   0.01759   0.01176  -0.1120  0.3097  1.0000  -2.9183   0.0000   0.0000   0.0000   0.3100
   9.500   1.4980   0.01800   0.01214  -0.1111  0.3034  1.0000  -2.9591   0.0000   0.0000   0.0000   0.3091
   9.600   1.5024   0.01838   0.01251  -0.1104  0.2966  1.0000  -3.0015   0.0000   0.0000   0.0000   0.3082
   9.700   1.5068   0.01878   0.01289  -0.1096  0.2900  1.0000  -3.0437   0.0000   0.0000   0.0000   0.3073
   9.800   1.5103   0.01924   0.01331  -0.1088  0.2834  1.0000  -3.0840   0.0000   0.0000   0.0000   0.3064
   9.900   1.5144   0.01966   0.01372  -0.1081  0.2764  1.0000  -3.1257   0.0000   0.0000   0.0000   0.3055
  10.000   1.5184   0.02010   0.01413  -0.1073  0.2696  1.0000  -3.1674   0.0000   0.0000   0.0000   0.3047
  10.100   1.5217   0.02058   0.01459  -0.1065  0.2630  1.0000  -3.2075   0.0000   0.0000   0.0000   0.3038
  10.200   1.5251   0.02107   0.01505  -0.1057  0.2562  1.0000  -3.2478   0.0000   0.0000   0.0000   0.3029
  10.300   1.5289   0.02153   0.01549  -0.1049  0.2493  1.0000  -3.2895   0.0000   0.0000   0.0000   0.3021
  10.400   1.5322   0.02204   0.01597  -0.1042  0.2428  1.0000  -3.3299   0.0000   0.0000   0.0000   0.3013
  10.600   1.5389   0.02304   0.01693  -0.1026  0.2299  1.0000  -3.4111   0.0000   0.0000   0.0000   0.2996
  10.700   1.5421   0.02356   0.01743  -0.1019  0.2239  1.0000  -3.4518   0.0000   0.0000   0.0000   0.2988
  10.900   1.5486   0.02461   0.01844  -0.1004  0.2120  1.0000  -3.5333   0.0000   0.0000   0.0000   0.2972
  11.000   1.5516   0.02516   0.01897  -0.0997  0.2063  1.0000  -3.5735   0.0000   0.0000   0.0000   0.2964
  11.100   1.5542   0.02574   0.01952  -0.0989  0.2005  1.0000  -3.6125   0.0000   0.0000   0.0000   0.2956
  11.200   1.5574   0.02629   0.02005  -0.0982  0.1944  1.0000  -3.6535   0.0000   0.0000   0.0000   0.2948
  11.300   1.5599   0.02688   0.02063  -0.0974  0.1887  1.0000  -3.6926   0.0000   0.0000   0.0000   0.2941
  11.400   1.5620   0.02750   0.02123  -0.0966  0.1830  1.0000  -3.7305   0.0000   0.0000   0.0000   0.2933
  11.500   1.5649   0.02808   0.02179  -0.0959  0.1771  1.0000  -3.7710   0.0000   0.0000   0.0000   0.2925
  11.600   1.5672   0.02870   0.02239  -0.0952  0.1718  1.0000  -3.8099   0.0000   0.0000   0.0000   0.2918
  11.700   1.5692   0.02935   0.02302  -0.0944  0.1665  1.0000  -3.8476   0.0000   0.0000   0.0000   0.2910
  11.800   1.5719   0.02996   0.02361  -0.0937  0.1611  1.0000  -3.8878   0.0000   0.0000   0.0000   0.2903
  11.900   1.5739   0.03061   0.02425  -0.0930  0.1562  1.0000  -3.9260   0.0000   0.0000   0.0000   0.2895
  12.000   1.5759   0.03128   0.02489  -0.0923  0.1512  1.0000  -3.9639   0.0000   0.0000   0.0000   0.2888
  12.100   1.5782   0.03191   0.02552  -0.0916  0.1463  1.0000  -4.0032   0.0000   0.0000   0.0000   0.2881
  12.200   1.5797   0.03263   0.02621  -0.0909  0.1417  1.0000  -4.0397   0.0000   0.0000   0.0000   0.2874
  12.300   1.5819   0.03328   0.02686  -0.0902  0.1368  1.0000  -4.0789   0.0000   0.0000   0.0000   0.2867
  12.400   1.5838   0.03398   0.02754  -0.0895  0.1325  1.0000  -4.1169   0.0000   0.0000   0.0000   0.2860
  12.500   1.5854   0.03471   0.02826  -0.0888  0.1281  1.0000  -4.1539   0.0000   0.0000   0.0000   0.2853
  12.600   1.5876   0.03540   0.02895  -0.0882  0.1238  1.0000  -4.1931   0.0000   0.0000   0.0000   0.2846
  12.700   1.5887   0.03618   0.02972  -0.0875  0.1199  1.0000  -4.2288   0.0000   0.0000   0.0000   0.2839
  12.800   1.5911   0.03687   0.03040  -0.0869  0.1156  1.0000  -4.2685   0.0000   0.0000   0.0000   0.2833
  12.900   1.5924   0.03765   0.03117  -0.0863  0.1119  1.0000  -4.3049   0.0000   0.0000   0.0000   0.2826
  13.000   1.5941   0.03840   0.03192  -0.0857  0.1080  1.0000  -4.3427   0.0000   0.0000   0.0000   0.2820
  13.100   1.5956   0.03919   0.03269  -0.0851  0.1045  1.0000  -4.3796   0.0000   0.0000   0.0000   0.2813
  13.200   1.5970   0.03998   0.03348  -0.0845  0.1010  1.0000  -4.4165   0.0000   0.0000   0.0000   0.2807
  13.300   1.5985   0.04078   0.03428  -0.0839  0.0978  1.0000  -4.4562   0.0000   0.0000   0.0000   0.2801
  13.400   1.5999   0.04159   0.03509  -0.0833  0.0946  1.0000  -4.4957   0.0000   0.0000   0.0000   0.2795
  13.500   1.6012   0.04243   0.03592  -0.0828  0.0918  1.0000  -4.5347   0.0000   0.0000   0.0000   0.2789
  13.600   1.6029   0.04323   0.03673  -0.0823  0.0888  1.0000  -4.5750   0.0000   0.0000   0.0000   0.2783
  13.700   1.6036   0.04414   0.03763  -0.0817  0.0864  1.0000  -4.6121   0.0000   0.0000   0.0000   0.2777
  13.800   1.6056   0.04493   0.03844  -0.0812  0.0837  1.0000  -4.6539   0.0000   0.0000   0.0000   0.2771
  13.900   1.6063   0.04585   0.03936  -0.0807  0.0814  1.0000  -4.6909   0.0000   0.0000   0.0000   0.2766
  14.000   1.6079   0.04670   0.04022  -0.0803  0.0791  1.0000  -4.7310   0.0000   0.0000   0.0000   0.2760
  14.100   1.6092   0.04757   0.04110  -0.0798  0.0769  1.0000  -4.7703   0.0000   0.0000   0.0000   0.2755
  14.200   1.6092   0.04857   0.04209  -0.0793  0.0750  1.0000  -4.8050   0.0000   0.0000   0.0000   0.2749
  14.300   1.6112   0.04939   0.04294  -0.0789  0.0730  1.0000  -4.8467   0.0000   0.0000   0.0000   0.2744
  14.400   1.6122   0.05031   0.04387  -0.0784  0.0711  1.0000  -4.8851   0.0000   0.0000   0.0000   0.2739
  14.500   1.6122   0.05135   0.04492  -0.0780  0.0695  1.0000  -4.9194   0.0000   0.0000   0.0000   0.2734
  14.600   1.6139   0.05223   0.04582  -0.0776  0.0677  1.0000  -4.9601   0.0000   0.0000   0.0000   0.2729
  14.700   1.6150   0.05317   0.04677  -0.0772  0.0660  1.0000  -4.9989   0.0000   0.0000   0.0000   0.2724
  14.800   1.6152   0.05421   0.04782  -0.0768  0.0646  1.0000  -5.0343   0.0000   0.0000   0.0000   0.2719
  14.900   1.6155   0.05526   0.04888  -0.0764  0.0632  1.0000  -5.0696   0.0000   0.0000   0.0000   0.2714
  15.000   1.6171   0.05617   0.04982  -0.0761  0.0617  1.0000  -5.1101   0.0000   0.0000   0.0000   0.2710
  15.100   1.6178   0.05719   0.05086  -0.0758  0.0603  1.0000  -5.1472   0.0000   0.0000   0.0000   0.2705
  15.200   1.6174   0.05833   0.05201  -0.0754  0.0591  1.0000  -5.1799   0.0000   0.0000   0.0000   0.2701
  15.300   1.6177   0.05940   0.05310  -0.0751  0.0579  1.0000  -5.2151   0.0000   0.0000   0.0000   0.2696
  15.400   1.6189   0.06037   0.05410  -0.0748  0.0565  1.0000  -5.2542   0.0000   0.0000   0.0000   0.2692
  15.500   1.6193   0.06145   0.05520  -0.0745  0.0553  1.0000  -5.2897   0.0000   0.0000   0.0000   0.2688
  15.600   1.6187   0.06263   0.05640  -0.0742  0.0543  1.0000  -5.3216   0.0000   0.0000   0.0000   0.2684
  15.700   1.6172   0.06393   0.05770  -0.0739  0.0533  1.0000  -5.3498   0.0000   0.0000   0.0000   0.2680
  15.800   1.6189   0.06488   0.05869  -0.0737  0.0521  1.0000  -5.3955   0.0000   0.0000   0.0000   0.2676
  15.900   1.6193   0.06598   0.05983  -0.0734  0.0510  1.0000  -5.4395   0.0000   0.0000   0.0000   0.2672
  16.000   1.6189   0.06719   0.06105  -0.0732  0.0500  1.0000  -5.4798   0.0000   0.0000   0.0000   0.2668
  16.100   1.6174   0.06853   0.06241  -0.0730  0.0491  1.0000  -5.5149   0.0000   0.0000   0.0000   0.2665
  16.200   1.6164   0.06983   0.06373  -0.0728  0.0482  1.0000  -5.5520   0.0000   0.0000   0.0000   0.2662
  16.300   1.6174   0.07089   0.06483  -0.0726  0.0471  1.0000  -5.5988   0.0000   0.0000   0.0000   0.2658
  16.400   1.6173   0.07210   0.06607  -0.0725  0.0461  1.0000  -5.6402   0.0000   0.0000   0.0000   0.2655
  16.500   1.6164   0.07341   0.06740  -0.0723  0.0452  1.0000  -5.6777   0.0000   0.0000   0.0000   0.2652
  16.600   1.6142   0.07488   0.06889  -0.0722  0.0444  1.0000  -5.7092   0.0000   0.0000   0.0000   0.2649
  16.700   1.6124   0.07633   0.07036  -0.0721  0.0437  1.0000  -5.7417   0.0000   0.0000   0.0000   0.2647
  16.800   1.6129   0.07748   0.07155  -0.0720  0.0427  1.0000  -5.7856   0.0000   0.0000   0.0000   0.2644
  16.900   1.6125   0.07874   0.07285  -0.0719  0.0418  1.0000  -5.8253   0.0000   0.0000   0.0000   0.2641
  17.000   1.6110   0.08015   0.07428  -0.0718  0.0410  1.0000  -5.8600   0.0000   0.0000   0.0000   0.2638
  17.100   1.6086   0.08168   0.07583  -0.0718  0.0403  1.0000  -5.8896   0.0000   0.0000   0.0000   0.2636
  17.200   1.6048   0.08341   0.07757  -0.0718  0.0396  1.0000  -5.9119   0.0000   0.0000   0.0000   0.2635
  17.300   1.6046   0.08470   0.07891  -0.0718  0.0388  1.0000  -5.9514   0.0000   0.0000   0.0000   0.2632
  17.400   1.6041   0.08602   0.08027  -0.0718  0.0380  1.0000  -5.9901   0.0000   0.0000   0.0000   0.2630
  17.500   1.6028   0.08746   0.08174  -0.0718  0.0372  1.0000  -6.0248   0.0000   0.0000   0.0000   0.2628
  17.600   1.6007   0.08901   0.08332  -0.0719  0.0366  1.0000  -6.0551   0.0000   0.0000   0.0000   0.2627
  17.700   1.5976   0.09071   0.08504  -0.0720  0.0360  1.0000  -6.0800   0.0000   0.0000   0.0000   0.2626
  17.800   1.5932   0.09259   0.08693  -0.0721  0.0355  1.0000  -6.0978   0.0000   0.0000   0.0000   0.2625
  17.900   1.5918   0.09409   0.08847  -0.0722  0.0349  1.0000  -6.1301   0.0000   0.0000   0.0000   0.2624
  18.000   1.5909   0.09550   0.08994  -0.0723  0.0342  1.0000  -6.1654   0.0000   0.0000   0.0000   0.2622
  18.100   1.5894   0.09702   0.09149  -0.0725  0.0336  1.0000  -6.1974   0.0000   0.0000   0.0000   0.2621
  18.200   1.5875   0.09859   0.09310  -0.0727  0.0331  1.0000  -6.2276   0.0000   0.0000   0.0000   0.2620
  18.300   1.5849   0.10027   0.09480  -0.0729  0.0326  1.0000  -6.2534   0.0000   0.0000   0.0000   0.2620
  18.400   1.5817   0.10202   0.09658  -0.0731  0.0322  1.0000  -6.2762   0.0000   0.0000   0.0000   0.2620
  18.500   1.5776   0.10390   0.09848  -0.0734  0.0318  1.0000  -6.2938   0.0000   0.0000   0.0000   0.2620
  18.600   1.5727   0.10591   0.10051  -0.0737  0.0315  1.0000  -6.3056   0.0000   0.0000   0.0000   0.2622
  18.700   1.5707   0.10753   0.10217  -0.0740  0.0311  1.0000  -6.3330   0.0000   0.0000   0.0000   0.2621
  18.800   1.5694   0.10906   0.10375  -0.0743  0.0307  1.0000  -6.3640   0.0000   0.0000   0.0000   0.2621
  18.900   1.5677   0.11066   0.10540  -0.0746  0.0302  1.0000  -6.3926   0.0000   0.0000   0.0000   0.2621
  19.000   1.5658   0.11229   0.10706  -0.0749  0.0299  1.0000  -6.4203   0.0000   0.0000   0.0000   0.2621
  19.100   1.5636   0.11395   0.10877  -0.0753  0.0295  1.0000  -6.4467   0.0000   0.0000   0.0000   0.2621
  19.200   1.5616   0.11562   0.11046  -0.0756  0.0292  1.0000  -6.4733   0.0000   0.0000   0.0000   0.2622
  19.300   1.5591   0.11734   0.11221  -0.0761  0.0289  1.0000  -6.4978   0.0000   0.0000   0.0000   0.2623
  19.400   1.5565   0.11909   0.11399  -0.0765  0.0286  1.0000  -6.5209   0.0000   0.0000   0.0000   0.2624
  19.500   1.5535   0.12091   0.11584  -0.0770  0.0283  1.0000  -6.5408   0.0000   0.0000   0.0000   0.2625
  19.600   1.5501   0.12277   0.11771  -0.0775  0.0281  1.0000  -6.5588   0.0000   0.0000   0.0000   0.2627
  19.700   1.5463   0.12471   0.11967  -0.0781  0.0278  1.0000  -6.5727   0.0000   0.0000   0.0000   0.2629
  19.800   1.5435   0.12650   0.12148  -0.0786  0.0276  1.0000  -6.5922   0.0000   0.0000   0.0000   0.2631
  19.900   1.5424   0.12805   0.12308  -0.0791  0.0273  1.0000  -6.6217   0.0000   0.0000   0.0000   0.2632
  20.000   1.5412   0.12960   0.12468  -0.0795  0.0271  1.0000  -6.6508   0.0000   0.0000   0.0000   0.2633


