xflr5 v6.57

 Calculated polar for: QX0023

 1 1 Reynolds number fixed          Mach number fixed         

 xtrf =   1.000 (top)        1.000 (bottom)
 Mach =   0.000     Re =     0.280 e 6     Ncrit =   9.000

  alpha     CL        CD       CDp       Cm    Top Xtr Bot Xtr   Cpmin    Chinge    XCp    
 ------- -------- --------- --------- -------- ------- ------- -------- --------- ---------
  -8.600  -0.2421   0.04609   0.04211  -0.1325  0.8709  0.0452  -3.4154   0.0000   0.0000   0.0000  -0.3250
  -8.500  -0.2359   0.04507   0.04109  -0.1328  0.8690  0.0451  -3.3806   0.0000   0.0000   0.0000  -0.3408
  -8.400  -0.2306   0.04392   0.03992  -0.1332  0.8672  0.0450  -3.3542   0.0000   0.0000   0.0000  -0.3556
  -8.300  -0.2258   0.04265   0.03861  -0.1336  0.8657  0.0448  -3.3355   0.0000   0.0000   0.0000  -0.3701
  -8.200  -0.2216   0.04122   0.03711  -0.1342  0.8644  0.0445  -3.3262   0.0000   0.0000   0.0000  -0.3842
  -8.100  -0.2181   0.03953   0.03532  -0.1350  0.8625  0.0441  -3.3325   0.0000   0.0000   0.0000  -0.3978
  -8.000  -0.2172   0.03697   0.03257  -0.1362  0.8601  0.0432  -3.3869   0.0000   0.0000   0.0000  -0.4058
  -7.900  -0.1961   0.04083   0.03676  -0.1344  0.8592  0.0472  -3.0936   0.0000   0.0000   0.0000  -0.4657
  -7.800  -0.1852   0.04188   0.03783  -0.1343  0.8578  0.0518  -2.9595   0.0000   0.0000   0.0000  -0.5065
  -7.700  -0.1766   0.04163   0.03759  -0.1342  0.8566  0.0523  -2.8922   0.0000   0.0000   0.0000  -0.5423
  -7.600  -0.1673   0.04163   0.03759  -0.1341  0.8556  0.0532  -2.8152   0.0000   0.0000   0.0000  -0.5847
  -7.500  -0.1971   0.02604   0.02006  -0.1386  0.8515  0.0416  -3.5987   0.0000   0.0000   0.0000  -0.4844
  -7.400  -0.1875   0.02554   0.01950  -0.1387  0.8501  0.0419  -3.5436   0.0000   0.0000   0.0000  -0.5213
  -7.300  -0.1778   0.02507   0.01896  -0.1387  0.8488  0.0424  -3.4913   0.0000   0.0000   0.0000  -0.5630
  -7.200  -0.1680   0.02456   0.01834  -0.1387  0.8477  0.0429  -3.4434   0.0000   0.0000   0.0000  -0.6098
  -7.100  -0.1582   0.02399   0.01764  -0.1387  0.8467  0.0435  -3.4010   0.0000   0.0000   0.0000  -0.6627
  -7.000  -0.1489   0.02344   0.01695  -0.1387  0.8448  0.0441  -3.3642   0.0000   0.0000   0.0000  -0.7194
  -6.900  -0.1392   0.02289   0.01624  -0.1387  0.8430  0.0446  -3.3285   0.0000   0.0000   0.0000  -0.7858
  -6.800  -0.1292   0.02238   0.01555  -0.1386  0.8415  0.0450  -3.2910   0.0000   0.0000   0.0000  -0.8651
  -6.700  -0.1190   0.02188   0.01490  -0.1386  0.8403  0.0454  -3.2499   0.0000   0.0000   0.0000  -0.9599
  -6.600  -0.1089   0.02125   0.01426  -0.1386  0.8392  0.0458  -3.1963   0.0000   0.0000   0.0000  -1.0716
  -6.500  -0.0983   0.02085   0.01384  -0.1386  0.8383  0.0463  -3.1356   0.0000   0.0000   0.0000  -1.2126
  -6.400  -0.0880   0.02054   0.01352  -0.1386  0.8368  0.0468  -3.0760   0.0000   0.0000   0.0000  -1.3837
  -6.300  -0.0778   0.02028   0.01325  -0.1386  0.8349  0.0474  -3.0177   0.0000   0.0000   0.0000  -1.5963
  -6.200  -0.0673   0.01999   0.01292  -0.1385  0.8334  0.0480  -2.9609   0.0000   0.0000   0.0000  -1.8825
  -6.100  -0.0566   0.01967   0.01255  -0.1385  0.8321  0.0486  -2.9095   0.0000   0.0000   0.0000  -2.2830
  -6.000  -0.0457   0.01936   0.01216  -0.1385  0.8309  0.0494  -2.8638   0.0000   0.0000   0.0000  -2.8817
  -5.900  -0.0347   0.01910   0.01178  -0.1384  0.8299  0.0502  -2.8184   0.0000   0.0000   0.0000  -3.8806
  -5.800  -0.0238   0.01873   0.01135  -0.1384  0.8290  0.0511  -2.7703   0.0000   0.0000   0.0000  -5.7699
  -5.700  -0.0137   0.01847   0.01115  -0.1384  0.8272  0.0519  -2.7142   0.0000   0.0000   0.0000  -10.1821
  -5.600  -0.0033   0.01830   0.01098  -0.1384  0.8254  0.0528  -2.6583   0.0000   0.0000   0.0000  -43.1833
  -5.500   0.0075   0.01810   0.01076  -0.1384  0.8240  0.0538  -2.6048   0.0000   0.0000   0.0000  19.3499
  -5.400   0.0185   0.01788   0.01049  -0.1384  0.8227  0.0548  -2.5541   0.0000   0.0000   0.0000   7.9789
  -5.300   0.0296   0.01766   0.01020  -0.1383  0.8216  0.0558  -2.5058   0.0000   0.0000   0.0000   5.0567
  -5.200   0.0407   0.01735   0.00986  -0.1383  0.8206  0.0567  -2.4569   0.0000   0.0000   0.0000   3.7517
  -5.100   0.0516   0.01707   0.00961  -0.1383  0.8198  0.0577  -2.4014   0.0000   0.0000   0.0000   3.0070
  -5.000   0.0617   0.01692   0.00949  -0.1383  0.8177  0.0587  -2.3488   0.0000   0.0000   0.0000   2.5531
  -4.900   0.0723   0.01678   0.00933  -0.1382  0.8160  0.0600  -2.2967   0.0000   0.0000   0.0000   2.2140
  -4.800   0.0834   0.01663   0.00914  -0.1382  0.8146  0.0615  -2.2453   0.0000   0.0000   0.0000   1.9531
  -4.700   0.0943   0.01640   0.00890  -0.1382  0.8133  0.0629  -2.1937   0.0000   0.0000   0.0000   1.7550
  -4.600   0.1053   0.01620   0.00873  -0.1382  0.8123  0.0644  -2.1374   0.0000   0.0000   0.0000   1.5970
  -4.500   0.1166   0.01604   0.00856  -0.1383  0.8113  0.0661  -2.0864   0.0000   0.0000   0.0000   1.4657
  -4.400   0.1282   0.01589   0.00835  -0.1383  0.8105  0.0680  -2.0404   0.0000   0.0000   0.0000   1.3554
  -4.300   0.1380   0.01572   0.00823  -0.1382  0.8083  0.0695  -1.9967   0.0000   0.0000   0.0000   1.2756
  -4.200   0.1486   0.01558   0.00813  -0.1382  0.8066  0.0713  -1.9491   0.0000   0.0000   0.0000   1.2021
  -4.100   0.1596   0.01546   0.00799  -0.1382  0.8052  0.0736  -1.9022   0.0000   0.0000   0.0000   1.1356
  -4.000   0.1708   0.01529   0.00781  -0.1382  0.8039  0.0759  -1.8556   0.0000   0.0000   0.0000   1.0775
  -3.900   0.1820   0.01513   0.00767  -0.1383  0.8028  0.0785  -1.8061   0.0000   0.0000   0.0000   1.0260
  -3.700   0.2050   0.01481   0.00734  -0.1384  0.8011  0.0847  -1.7105   0.0000   0.0000   0.0000   0.9388
  -3.600   0.2152   0.01476   0.00730  -0.1383  0.7988  0.0884  -1.6671   0.0000   0.0000   0.0000   0.9056
  -3.500   0.2258   0.01462   0.00722  -0.1383  0.7970  0.0922  -1.6208   0.0000   0.0000   0.0000   0.8745
  -3.400   0.2369   0.01449   0.00710  -0.1383  0.7956  0.0974  -1.5746   0.0000   0.0000   0.0000   0.8449
  -3.300   0.2483   0.01436   0.00697  -0.1384  0.7943  0.1037  -1.5279   0.0000   0.0000   0.0000   0.8175
  -3.200   0.2597   0.01420   0.00684  -0.1385  0.7933  0.1112  -1.4809   0.0000   0.0000   0.0000   0.7924
  -3.100   0.2713   0.01403   0.00671  -0.1386  0.7923  0.1203  -1.4338   0.0000   0.0000   0.0000   0.7694
  -3.000   0.2828   0.01387   0.00660  -0.1387  0.7913  0.1316  -1.3866   0.0000   0.0000   0.0000   0.7483
  -2.800   0.3037   0.01369   0.00658  -0.1387  0.7872  0.1602  -1.3008   0.0000   0.0000   0.0000   0.7136
  -2.700   0.3149   0.01358   0.00652  -0.1388  0.7858  0.1768  -1.2577   0.0000   0.0000   0.0000   0.6970
  -2.600   0.3263   0.01346   0.00644  -0.1389  0.7846  0.1941  -1.2141   0.0000   0.0000   0.0000   0.6813
  -2.500   0.3379   0.01334   0.00637  -0.1390  0.7835  0.2114  -1.1700   0.0000   0.0000   0.0000   0.6666
  -2.400   0.3497   0.01322   0.00630  -0.1391  0.7825  0.2290  -1.1258   0.0000   0.0000   0.0000   0.6527
  -2.300   0.3608   0.01315   0.00628  -0.1392  0.7811  0.2470  -1.0830   0.0000   0.0000   0.0000   0.6402
  -2.200   0.3710   0.01312   0.00632  -0.1391  0.7789  0.2645  -1.0424   0.0000   0.0000   0.0000   0.6291
  -2.100   0.3820   0.01304   0.00630  -0.1392  0.7772  0.2832  -1.0006   0.0000   0.0000   0.0000   0.6181
  -2.000   0.3933   0.01294   0.00627  -0.1393  0.7757  0.3040  -0.9583   0.0000   0.0000   0.0000   0.6075
  -1.700   0.4283   0.01259   0.00610  -0.1396  0.7725  0.3783  -0.8351   0.0000   0.0000   0.0000   0.5785
  -1.600   0.4385   0.01253   0.00616  -0.1395  0.7704  0.4060  -0.7994   0.0000   0.0000   0.0000   0.5705
  -1.500   0.4489   0.01247   0.00620  -0.1395  0.7683  0.4366  -0.7719   0.0000   0.0000   0.0000   0.5627
  -1.400   0.4598   0.01236   0.00620  -0.1395  0.7667  0.4694  -0.7788   0.0000   0.0000   0.0000   0.5551
  -1.300   0.4709   0.01225   0.00619  -0.1395  0.7653  0.5052  -0.7861   0.0000   0.0000   0.0000   0.5477
  -1.200   0.4822   0.01213   0.00617  -0.1395  0.7641  0.5410  -0.7936   0.0000   0.0000   0.0000   0.5404
  -1.100   0.4935   0.01202   0.00614  -0.1394  0.7631  0.5747  -0.8012   0.0000   0.0000   0.0000   0.5335
  -1.000   0.5043   0.01194   0.00615  -0.1393  0.7617  0.6067  -0.8086   0.0000   0.0000   0.0000   0.5270
  -0.900   0.5135   0.01193   0.00627  -0.1389  0.7593  0.6364  -0.8150   0.0000   0.0000   0.0000   0.5211
  -0.800   0.5238   0.01189   0.00630  -0.1387  0.7574  0.6658  -0.8222   0.0000   0.0000   0.0000   0.5151
  -0.700   0.5344   0.01184   0.00630  -0.1384  0.7559  0.6914  -0.8299   0.0000   0.0000   0.0000   0.5092
  -0.600   0.5453   0.01178   0.00628  -0.1382  0.7546  0.7150  -0.8378   0.0000   0.0000   0.0000   0.5035
  -0.500   0.5562   0.01171   0.00625  -0.1380  0.7535  0.7364  -0.8458   0.0000   0.0000   0.0000   0.4979
  -0.400   0.5672   0.01164   0.00621  -0.1378  0.7525  0.7567  -0.8538   0.0000   0.0000   0.0000   0.4925
  -0.300   0.5756   0.01168   0.00632  -0.1372  0.7497  0.7750  -0.8602   0.0000   0.0000   0.0000   0.4878
  -0.200   0.5852   0.01166   0.00635  -0.1368  0.7477  0.7932  -0.8674   0.0000   0.0000   0.0000   0.4830
  -0.100   0.5949   0.01161   0.00633  -0.1363  0.7461  0.8108  -0.8750   0.0000   0.0000   0.0000   0.4782
   0.000   0.6048   0.01155   0.00630  -0.1359  0.7447  0.8288  -0.8830   0.0000   0.0000   0.0000   0.4735
   0.100   0.6148   0.01149   0.00624  -0.1354  0.7435  0.8469  -0.8912   0.0000   0.0000   0.0000   0.4689
   0.200   0.6246   0.01142   0.00618  -0.1348  0.7425  0.8647  -0.8993   0.0000   0.0000   0.0000   0.4644
   0.300   0.6315   0.01144   0.00628  -0.1339  0.7397  0.8836  -0.9055   0.0000   0.0000   0.0000   0.4604
   0.400   0.6399   0.01141   0.00627  -0.1331  0.7376  0.9046  -0.9129   0.0000   0.0000   0.0000   0.4562
   0.500   0.6506   0.01134   0.00621  -0.1328  0.7359  0.9280  -0.9217   0.0000   0.0000   0.0000   0.4522
   0.600   0.6658   0.01126   0.00612  -0.1334  0.7345  0.9545  -0.9330   0.0000   0.0000   0.0000   0.4483
   0.700   0.6856   0.01117   0.00600  -0.1352  0.7333  0.9912  -0.9473   0.0000   0.0000   0.0000   0.4449
   0.800   0.6987   0.01116   0.00595  -0.1356  0.7319  1.0000  -0.9576   0.0000   0.0000   0.0000   0.4417
   0.900   0.7087   0.01124   0.00603  -0.1356  0.7291  1.0000  -0.9662   0.0000   0.0000   0.0000   0.4387
   1.000   0.7202   0.01126   0.00602  -0.1357  0.7270  1.0000  -0.9760   0.0000   0.0000   0.0000   0.4357
   1.100   0.7322   0.01126   0.00599  -0.1359  0.7253  1.0000  -0.9863   0.0000   0.0000   0.0000   0.4327
   1.200   0.7445   0.01124   0.00593  -0.1361  0.7238  1.0000  -0.9970   0.0000   0.0000   0.0000   0.4298
   1.300   0.7571   0.01123   0.00587  -0.1363  0.7226  1.0000  -1.0080   0.0000   0.0000   0.0000   0.4270
   1.400   0.7674   0.01129   0.00593  -0.1363  0.7200  1.0000  -1.0174   0.0000   0.0000   0.0000   0.4243
   1.500   0.7782   0.01132   0.00596  -0.1363  0.7176  1.0000  -1.0271   0.0000   0.0000   0.0000   0.4217
   1.600   0.7899   0.01133   0.00593  -0.1364  0.7156  1.0000  -1.0378   0.0000   0.0000   0.0000   0.4191
   1.700   0.8020   0.01132   0.00589  -0.1366  0.7140  1.0000  -1.0490   0.0000   0.0000   0.0000   0.4166
   1.800   0.8145   0.01130   0.00583  -0.1368  0.7126  1.0000  -1.0606   0.0000   0.0000   0.0000   0.4141
   1.900   0.8252   0.01134   0.00587  -0.1367  0.7102  1.0000  -1.0713   0.0000   0.0000   0.0000   0.4118
   2.000   0.8357   0.01138   0.00591  -0.1367  0.7076  1.0000  -1.0818   0.0000   0.0000   0.0000   0.4095
   2.100   0.8472   0.01139   0.00590  -0.1367  0.7055  1.0000  -1.0931   0.0000   0.0000   0.0000   0.4072
   2.200   0.8592   0.01138   0.00586  -0.1369  0.7037  1.0000  -1.1051   0.0000   0.0000   0.0000   0.4050
   2.300   0.8715   0.01136   0.00580  -0.1371  0.7022  1.0000  -1.1175   0.0000   0.0000   0.0000   0.4028
   2.400   0.8819   0.01141   0.00586  -0.1370  0.6996  1.0000  -1.1283   0.0000   0.0000   0.0000   0.4007
   2.500   0.8925   0.01145   0.00589  -0.1369  0.6969  1.0000  -1.1394   0.0000   0.0000   0.0000   0.3986
   2.600   0.9040   0.01145   0.00588  -0.1370  0.6947  1.0000  -1.1515   0.0000   0.0000   0.0000   0.3966
   2.700   0.9160   0.01144   0.00584  -0.1371  0.6928  1.0000  -1.1643   0.0000   0.0000   0.0000   0.3946
   2.800   0.9285   0.01142   0.00578  -0.1373  0.6913  1.0000  -1.1776   0.0000   0.0000   0.0000   0.3927
   2.900   0.9378   0.01150   0.00588  -0.1370  0.6879  1.0000  -1.1888   0.0000   0.0000   0.0000   0.3908
   3.000   0.9488   0.01152   0.00590  -0.1370  0.6853  1.0000  -1.2012   0.0000   0.0000   0.0000   0.3890
   3.100   0.9604   0.01151   0.00587  -0.1371  0.6832  1.0000  -1.2143   0.0000   0.0000   0.0000   0.3872
   3.200   0.9727   0.01150   0.00582  -0.1372  0.6814  1.0000  -1.2282   0.0000   0.0000   0.0000   0.3854
   3.300   0.9828   0.01155   0.00589  -0.1371  0.6784  1.0000  -1.2404   0.0000   0.0000   0.0000   0.3837
   3.400   0.9932   0.01158   0.00593  -0.1370  0.6754  1.0000  -1.2530   0.0000   0.0000   0.0000   0.3820
   3.500   1.0047   0.01158   0.00591  -0.1370  0.6730  1.0000  -1.2673   0.0000   0.0000   0.0000   0.3803
   3.600   1.0168   0.01157   0.00586  -0.1372  0.6710  1.0000  -1.2826   0.0000   0.0000   0.0000   0.3787
   3.700   1.0269   0.01162   0.00593  -0.1370  0.6679  1.0000  -1.2962   0.0000   0.0000   0.0000   0.3771
   3.800   1.0372   0.01165   0.00597  -0.1369  0.6648  1.0000  -1.3102   0.0000   0.0000   0.0000   0.3755
   3.900   1.0486   0.01166   0.00595  -0.1369  0.6623  1.0000  -1.3255   0.0000   0.0000   0.0000   0.3739
   4.000   1.0607   0.01165   0.00591  -0.1370  0.6601  1.0000  -1.3414   0.0000   0.0000   0.0000   0.3724
   4.100   1.0702   0.01171   0.00601  -0.1368  0.6565  1.0000  -1.3551   0.0000   0.0000   0.0000   0.3709
   4.200   1.0807   0.01174   0.00604  -0.1367  0.6534  1.0000  -1.3709   0.0000   0.0000   0.0000   0.3694
   4.300   1.0923   0.01174   0.00602  -0.1367  0.6507  1.0000  -1.3879   0.0000   0.0000   0.0000   0.3680
   4.400   1.1031   0.01177   0.00604  -0.1366  0.6478  1.0000  -1.4043   0.0000   0.0000   0.0000   0.3666
   4.500   1.1128   0.01182   0.00611  -0.1364  0.6440  1.0000  -1.4198   0.0000   0.0000   0.0000   0.3652
   4.600   1.1238   0.01183   0.00611  -0.1364  0.6410  1.0000  -1.4371   0.0000   0.0000   0.0000   0.3638
   4.700   1.1354   0.01184   0.00609  -0.1364  0.6383  1.0000  -1.4549   0.0000   0.0000   0.0000   0.3625
   4.800   1.1445   0.01191   0.00618  -0.1361  0.6341  1.0000  -1.4704   0.0000   0.0000   0.0000   0.3611
   4.900   1.1552   0.01193   0.00621  -0.1360  0.6306  1.0000  -1.4883   0.0000   0.0000   0.0000   0.3598
   5.000   1.1666   0.01195   0.00619  -0.1360  0.6277  1.0000  -1.5080   0.0000   0.0000   0.0000   0.3585
   5.100   1.1756   0.01201   0.00629  -0.1357  0.6232  1.0000  -1.5252   0.0000   0.0000   0.0000   0.3572
   5.200   1.1861   0.01204   0.00631  -0.1355  0.6195  1.0000  -1.5443   0.0000   0.0000   0.0000   0.3559
   5.300   1.1967   0.01208   0.00633  -0.1354  0.6159  1.0000  -1.5640   0.0000   0.0000   0.0000   0.3547
   5.400   1.2061   0.01214   0.00641  -0.1351  0.6113  1.0000  -1.5824   0.0000   0.0000   0.0000   0.3534
   5.500   1.2167   0.01218   0.00642  -0.1350  0.6077  1.0000  -1.6031   0.0000   0.0000   0.0000   0.3522
   5.600   1.2263   0.01224   0.00650  -0.1348  0.6033  1.0000  -1.6241   0.0000   0.0000   0.0000   0.3510
   5.700   1.2361   0.01229   0.00656  -0.1345  0.5988  1.0000  -1.6454   0.0000   0.0000   0.0000   0.3497
   5.800   1.2466   0.01234   0.00658  -0.1344  0.5950  1.0000  -1.6684   0.0000   0.0000   0.0000   0.3486
   5.900   1.2555   0.01242   0.00668  -0.1340  0.5898  1.0000  -1.6920   0.0000   0.0000   0.0000   0.3474
   6.000   1.2657   0.01247   0.00670  -0.1338  0.5856  1.0000  -1.7179   0.0000   0.0000   0.0000   0.3462
   6.100   1.2747   0.01255   0.00680  -0.1335  0.5803  1.0000  -1.7427   0.0000   0.0000   0.0000   0.3451
   6.200   1.2843   0.01262   0.00686  -0.1332  0.5756  1.0000  -1.7703   0.0000   0.0000   0.0000   0.3439
   6.300   1.2935   0.01270   0.00694  -0.1329  0.5705  1.0000  -1.7998   0.0000   0.0000   0.0000   0.3428
   6.400   1.3027   0.01279   0.00702  -0.1326  0.5654  1.0000  -1.8296   0.0000   0.0000   0.0000   0.3417
   6.500   1.3118   0.01288   0.00711  -0.1322  0.5601  1.0000  -1.8593   0.0000   0.0000   0.0000   0.3405
   6.600   1.3207   0.01297   0.00719  -0.1318  0.5546  1.0000  -1.8892   0.0000   0.0000   0.0000   0.3394
   6.700   1.3295   0.01307   0.00729  -0.1314  0.5491  1.0000  -1.9202   0.0000   0.0000   0.0000   0.3383
   6.800   1.3381   0.01318   0.00738  -0.1310  0.5433  1.0000  -1.9509   0.0000   0.0000   0.0000   0.3372
   6.900   1.3465   0.01329   0.00749  -0.1306  0.5374  1.0000  -1.9815   0.0000   0.0000   0.0000   0.3361
   7.000   1.3549   0.01341   0.00759  -0.1301  0.5316  1.0000  -2.0136   0.0000   0.0000   0.0000   0.3350
   7.100   1.3628   0.01353   0.00771  -0.1296  0.5253  1.0000  -2.0451   0.0000   0.0000   0.0000   0.3339
   7.200   1.3709   0.01367   0.00781  -0.1291  0.5194  1.0000  -2.0773   0.0000   0.0000   0.0000   0.3328
   7.300   1.3784   0.01381   0.00797  -0.1285  0.5125  1.0000  -2.1084   0.0000   0.0000   0.0000   0.3317
   7.400   1.3859   0.01396   0.00809  -0.1279  0.5062  1.0000  -2.1413   0.0000   0.0000   0.0000   0.3307
   7.500   1.3930   0.01412   0.00824  -0.1272  0.4994  1.0000  -2.1735   0.0000   0.0000   0.0000   0.3296
   7.600   1.4000   0.01428   0.00839  -0.1265  0.4924  1.0000  -2.2056   0.0000   0.0000   0.0000   0.3285
   7.700   1.4067   0.01446   0.00853  -0.1258  0.4858  1.0000  -2.2374   0.0000   0.0000   0.0000   0.3274
   7.800   1.4130   0.01464   0.00871  -0.1250  0.4784  1.0000  -2.2686   0.0000   0.0000   0.0000   0.3262
   7.900   1.4191   0.01484   0.00888  -0.1242  0.4714  1.0000  -2.2995   0.0000   0.0000   0.0000   0.3251
   8.100   1.4296   0.01525   0.00924  -0.1223  0.4572  1.0000  -2.3588   0.0000   0.0000   0.0000   0.3228
   8.200   1.4342   0.01547   0.00945  -0.1212  0.4504  1.0000  -2.3918   0.0000   0.0000   0.0000   0.3217
   8.300   1.4387   0.01571   0.00966  -0.1202  0.4435  1.0000  -2.4313   0.0000   0.0000   0.0000   0.3205
   8.400   1.4434   0.01595   0.00989  -0.1192  0.4363  1.0000  -2.4718   0.0000   0.0000   0.0000   0.3194
   8.500   1.4478   0.01622   0.01013  -0.1182  0.4296  1.0000  -2.5118   0.0000   0.0000   0.0000   0.3183
   8.600   1.4521   0.01650   0.01039  -0.1172  0.4226  1.0000  -2.5518   0.0000   0.0000   0.0000   0.3172
   8.700   1.4565   0.01678   0.01065  -0.1162  0.4156  1.0000  -2.5920   0.0000   0.0000   0.0000   0.3161
   8.800   1.4604   0.01709   0.01094  -0.1151  0.4091  1.0000  -2.6312   0.0000   0.0000   0.0000   0.3150
   8.900   1.4646   0.01740   0.01123  -0.1142  0.4019  1.0000  -2.6714   0.0000   0.0000   0.0000   0.3140
   9.000   1.4686   0.01772   0.01154  -0.1132  0.3952  1.0000  -2.7112   0.0000   0.0000   0.0000   0.3129
   9.100   1.4721   0.01808   0.01186  -0.1122  0.3886  1.0000  -2.7500   0.0000   0.0000   0.0000   0.3119
   9.200   1.4763   0.01841   0.01220  -0.1113  0.3817  1.0000  -2.7905   0.0000   0.0000   0.0000   0.3109
   9.300   1.4800   0.01878   0.01255  -0.1104  0.3753  1.0000  -2.8299   0.0000   0.0000   0.0000   0.3099
   9.400   1.4836   0.01916   0.01291  -0.1094  0.3686  1.0000  -2.8693   0.0000   0.0000   0.0000   0.3089
   9.500   1.4875   0.01953   0.01327  -0.1086  0.3620  1.0000  -2.9095   0.0000   0.0000   0.0000   0.3079
   9.600   1.4906   0.01996   0.01367  -0.1076  0.3558  1.0000  -2.9478   0.0000   0.0000   0.0000   0.3070
   9.700   1.4945   0.02035   0.01406  -0.1067  0.3491  1.0000  -2.9882   0.0000   0.0000   0.0000   0.3060
   9.800   1.4979   0.02077   0.01447  -0.1059  0.3428  1.0000  -3.0276   0.0000   0.0000   0.0000   0.3051
   9.900   1.5009   0.02122   0.01490  -0.1049  0.3364  1.0000  -3.0661   0.0000   0.0000   0.0000   0.3042
  10.000   1.5046   0.02165   0.01532  -0.1041  0.3299  1.0000  -3.1063   0.0000   0.0000   0.0000   0.3033
  10.100   1.5073   0.02213   0.01578  -0.1032  0.3238  1.0000  -3.1443   0.0000   0.0000   0.0000   0.3024
  10.200   1.5106   0.02260   0.01624  -0.1024  0.3172  1.0000  -3.1838   0.0000   0.0000   0.0000   0.3015
  10.300   1.5137   0.02308   0.01671  -0.1016  0.3109  1.0000  -3.2230   0.0000   0.0000   0.0000   0.3006
  10.400   1.5160   0.02361   0.01722  -0.1006  0.3049  1.0000  -3.2599   0.0000   0.0000   0.0000   0.2997
  10.500   1.5194   0.02409   0.01770  -0.0999  0.2983  1.0000  -3.3001   0.0000   0.0000   0.0000   0.2989
  10.600   1.5219   0.02463   0.01822  -0.0990  0.2924  1.0000  -3.3379   0.0000   0.0000   0.0000   0.2980
  10.700   1.5245   0.02517   0.01875  -0.0982  0.2861  1.0000  -3.3758   0.0000   0.0000   0.0000   0.2972
  10.800   1.5273   0.02570   0.01927  -0.0974  0.2798  1.0000  -3.4149   0.0000   0.0000   0.0000   0.2964
  10.900   1.5292   0.02631   0.01985  -0.0965  0.2739  1.0000  -3.4509   0.0000   0.0000   0.0000   0.2955
  11.000   1.5318   0.02687   0.02041  -0.0958  0.2674  1.0000  -3.4894   0.0000   0.0000   0.0000   0.2947
  11.100   1.5340   0.02746   0.02099  -0.0949  0.2612  1.0000  -3.5268   0.0000   0.0000   0.0000   0.2939
  11.300   1.5378   0.02871   0.02220  -0.0933  0.2486  1.0000  -3.6000   0.0000   0.0000   0.0000   0.2923
  11.400   1.5396   0.02936   0.02284  -0.0925  0.2425  1.0000  -3.6362   0.0000   0.0000   0.0000   0.2915
  11.500   1.5406   0.03006   0.02352  -0.0917  0.2365  1.0000  -3.6703   0.0000   0.0000   0.0000   0.2908
  11.600   1.5428   0.03069   0.02415  -0.0910  0.2299  1.0000  -3.7079   0.0000   0.0000   0.0000   0.2900
  11.700   1.5442   0.03139   0.02483  -0.0902  0.2239  1.0000  -3.7432   0.0000   0.0000   0.0000   0.2892
  11.800   1.5448   0.03214   0.02555  -0.0894  0.2181  1.0000  -3.7762   0.0000   0.0000   0.0000   0.2885
  11.900   1.5466   0.03281   0.02622  -0.0886  0.2117  1.0000  -3.8129   0.0000   0.0000   0.0000   0.2878
  12.000   1.5478   0.03355   0.02694  -0.0879  0.2057  1.0000  -3.8475   0.0000   0.0000   0.0000   0.2870
  12.200   1.5495   0.03508   0.02844  -0.0864  0.1937  1.0000  -3.9153   0.0000   0.0000   0.0000   0.2856
  12.300   1.5505   0.03586   0.02921  -0.0857  0.1879  1.0000  -3.9494   0.0000   0.0000   0.0000   0.2849
  12.400   1.5505   0.03672   0.03004  -0.0849  0.1825  1.0000  -3.9806   0.0000   0.0000   0.0000   0.2842
  12.500   1.5518   0.03749   0.03080  -0.0843  0.1765  1.0000  -4.0159   0.0000   0.0000   0.0000   0.2835
  12.600   1.5526   0.03831   0.03161  -0.0836  0.1710  1.0000  -4.0493   0.0000   0.0000   0.0000   0.2829
  12.700   1.5523   0.03922   0.03250  -0.0829  0.1660  1.0000  -4.0798   0.0000   0.0000   0.0000   0.2822
  12.800   1.5537   0.04002   0.03329  -0.0823  0.1605  1.0000  -4.1150   0.0000   0.0000   0.0000   0.2816
  12.900   1.5542   0.04089   0.03416  -0.0816  0.1555  1.0000  -4.1477   0.0000   0.0000   0.0000   0.2809
  13.000   1.5542   0.04182   0.03507  -0.0810  0.1507  1.0000  -4.1788   0.0000   0.0000   0.0000   0.2803
  13.100   1.5553   0.04267   0.03592  -0.0804  0.1457  1.0000  -4.2133   0.0000   0.0000   0.0000   0.2797
  13.200   1.5553   0.04363   0.03687  -0.0798  0.1414  1.0000  -4.2439   0.0000   0.0000   0.0000   0.2791
  13.300   1.5561   0.04452   0.03776  -0.0792  0.1368  1.0000  -4.2774   0.0000   0.0000   0.0000   0.2785
  13.400   1.5564   0.04547   0.03870  -0.0787  0.1327  1.0000  -4.3092   0.0000   0.0000   0.0000   0.2779
  13.500   1.5565   0.04644   0.03967  -0.0781  0.1286  1.0000  -4.3409   0.0000   0.0000   0.0000   0.2774
  13.600   1.5570   0.04738   0.04061  -0.0776  0.1247  1.0000  -4.3755   0.0000   0.0000   0.0000   0.2768
  13.700   1.5567   0.04841   0.04163  -0.0771  0.1211  1.0000  -4.4074   0.0000   0.0000   0.0000   0.2762
  13.800   1.5573   0.04937   0.04259  -0.0766  0.1174  1.0000  -4.4422   0.0000   0.0000   0.0000   0.2757
  13.900   1.5569   0.05043   0.04365  -0.0761  0.1141  1.0000  -4.4736   0.0000   0.0000   0.0000   0.2752
  14.000   1.5574   0.05142   0.04465  -0.0756  0.1107  1.0000  -4.5079   0.0000   0.0000   0.0000   0.2746
  14.100   1.5570   0.05249   0.04572  -0.0752  0.1076  1.0000  -4.5395   0.0000   0.0000   0.0000   0.2741
  14.200   1.5570   0.05355   0.04678  -0.0747  0.1047  1.0000  -4.5719   0.0000   0.0000   0.0000   0.2736
  14.300   1.5571   0.05461   0.04785  -0.0743  0.1017  1.0000  -4.6048   0.0000   0.0000   0.0000   0.2732
  14.400   1.5558   0.05581   0.04904  -0.0739  0.0994  1.0000  -4.6328   0.0000   0.0000   0.0000   0.2727
  14.500   1.5568   0.05679   0.05005  -0.0735  0.0964  1.0000  -4.6687   0.0000   0.0000   0.0000   0.2722
  14.600   1.5560   0.05797   0.05123  -0.0731  0.0941  1.0000  -4.6981   0.0000   0.0000   0.0000   0.2718
  14.700   1.5557   0.05909   0.05237  -0.0728  0.0918  1.0000  -4.7292   0.0000   0.0000   0.0000   0.2713
  14.800   1.5559   0.06018   0.05347  -0.0724  0.0893  1.0000  -4.7619   0.0000   0.0000   0.0000   0.2709
  14.900   1.5546   0.06143   0.05472  -0.0721  0.0874  1.0000  -4.7895   0.0000   0.0000   0.0000   0.2705
  15.000   1.5545   0.06256   0.05587  -0.0718  0.0853  1.0000  -4.8211   0.0000   0.0000   0.0000   0.2701
  15.100   1.5546   0.06368   0.05701  -0.0715  0.0832  1.0000  -4.8534   0.0000   0.0000   0.0000   0.2697
  15.200   1.5532   0.06497   0.05831  -0.0712  0.0815  1.0000  -4.8805   0.0000   0.0000   0.0000   0.2693
  15.300   1.5526   0.06619   0.05955  -0.0710  0.0798  1.0000  -4.9096   0.0000   0.0000   0.0000   0.2689
  15.400   1.5530   0.06731   0.06070  -0.0707  0.0778  1.0000  -4.9426   0.0000   0.0000   0.0000   0.2685
  15.500   1.5519   0.06859   0.06199  -0.0705  0.0762  1.0000  -4.9706   0.0000   0.0000   0.0000   0.2682
  15.600   1.5496   0.07003   0.06342  -0.0703  0.0749  1.0000  -4.9935   0.0000   0.0000   0.0000   0.2679
  15.700   1.5504   0.07113   0.06456  -0.0701  0.0731  1.0000  -5.0273   0.0000   0.0000   0.0000   0.2675
  15.800   1.5502   0.07234   0.06581  -0.0699  0.0715  1.0000  -5.0580   0.0000   0.0000   0.0000   0.2672
  15.900   1.5487   0.07372   0.06719  -0.0698  0.0702  1.0000  -5.0836   0.0000   0.0000   0.0000   0.2669
  16.000   1.5463   0.07519   0.06866  -0.0696  0.0691  1.0000  -5.1053   0.0000   0.0000   0.0000   0.2666
  16.100   1.5470   0.07632   0.06984  -0.0695  0.0674  1.0000  -5.1381   0.0000   0.0000   0.0000   0.2663
  16.200   1.5466   0.07758   0.07114  -0.0694  0.0660  1.0000  -5.1671   0.0000   0.0000   0.0000   0.2660
  16.300   1.5451   0.07897   0.07255  -0.0693  0.0649  1.0000  -5.1990   0.0000   0.0000   0.0000   0.2657
  16.400   1.5425   0.08050   0.07407  -0.0692  0.0639  1.0000  -5.2260   0.0000   0.0000   0.0000   0.2655
  16.500   1.5423   0.08176   0.07537  -0.0691  0.0626  1.0000  -5.2631   0.0000   0.0000   0.0000   0.2652
  16.600   1.5419   0.08305   0.07671  -0.0691  0.0613  1.0000  -5.2997   0.0000   0.0000   0.0000   0.2650
  16.700   1.5409   0.08443   0.07811  -0.0690  0.0601  1.0000  -5.3337   0.0000   0.0000   0.0000   0.2648
  16.800   1.5389   0.08593   0.07962  -0.0690  0.0592  1.0000  -5.3630   0.0000   0.0000   0.0000   0.2646
  16.900   1.5364   0.08748   0.08116  -0.0690  0.0583  1.0000  -5.3895   0.0000   0.0000   0.0000   0.2644
  17.000   1.5365   0.08876   0.08250  -0.0690  0.0570  1.0000  -5.4269   0.0000   0.0000   0.0000   0.2642
  17.100   1.5357   0.09014   0.08392  -0.0691  0.0559  1.0000  -5.4609   0.0000   0.0000   0.0000   0.2640
  17.200   1.5345   0.09158   0.08538  -0.0691  0.0549  1.0000  -5.4932   0.0000   0.0000   0.0000   0.2638
  17.300   1.5325   0.09310   0.08691  -0.0692  0.0541  1.0000  -5.5219   0.0000   0.0000   0.0000   0.2637
  17.400   1.5300   0.09466   0.08845  -0.0693  0.0533  1.0000  -5.5478   0.0000   0.0000   0.0000   0.2636
  17.500   1.5297   0.09601   0.08989  -0.0693  0.0522  1.0000  -5.5820   0.0000   0.0000   0.0000   0.2634
  17.600   1.5288   0.09743   0.09135  -0.0695  0.0512  1.0000  -5.6142   0.0000   0.0000   0.0000   0.2633
  17.700   1.5276   0.09888   0.09282  -0.0696  0.0503  1.0000  -5.6454   0.0000   0.0000   0.0000   0.2631
  17.800   1.5259   0.10038   0.09433  -0.0697  0.0495  1.0000  -5.6751   0.0000   0.0000   0.0000   0.2630
  17.900   1.5239   0.10188   0.09582  -0.0699  0.0488  1.0000  -5.7031   0.0000   0.0000   0.0000   0.2629
  18.000   1.5227   0.10333   0.09730  -0.0700  0.0480  1.0000  -5.7323   0.0000   0.0000   0.0000   0.2628
  18.100   1.5219   0.10477   0.09881  -0.0702  0.0471  1.0000  -5.7632   0.0000   0.0000   0.0000   0.2627
  18.200   1.5210   0.10622   0.10029  -0.0704  0.0463  1.0000  -5.7943   0.0000   0.0000   0.0000   0.2626
  18.300   1.5199   0.10768   0.10178  -0.0706  0.0455  1.0000  -5.8253   0.0000   0.0000   0.0000   0.2626
  18.400   1.5188   0.10913   0.10323  -0.0708  0.0449  1.0000  -5.8569   0.0000   0.0000   0.0000   0.2625
  18.500   1.5177   0.11052   0.10460  -0.0710  0.0443  1.0000  -5.8888   0.0000   0.0000   0.0000   0.2624
  18.600   1.5168   0.11190   0.10600  -0.0712  0.0436  1.0000  -5.9194   0.0000   0.0000   0.0000   0.2623
  18.700   1.5160   0.11338   0.10756  -0.0715  0.0428  1.0000  -5.9487   0.0000   0.0000   0.0000   0.2623
  18.800   1.5153   0.11484   0.10906  -0.0718  0.0421  1.0000  -5.9793   0.0000   0.0000   0.0000   0.2622
  18.900   1.5146   0.11626   0.11052  -0.0721  0.0415  1.0000  -6.0112   0.0000   0.0000   0.0000   0.2622
  19.000   1.5141   0.11765   0.11192  -0.0724  0.0409  1.0000  -6.0449   0.0000   0.0000   0.0000   0.2622
  19.100   1.5137   0.11900   0.11287  -0.0727  0.0404  1.0000  -6.0796   0.0000   0.0000   0.0000   0.2621
  19.200   1.5137   0.12020   0.11445  -0.0729  0.0398  1.0000  -6.1177   0.0000   0.0000   0.0000   0.2620
  19.300   1.5140   0.12137   0.11562  -0.0730  0.0393  1.0000  -6.1542   0.0000   0.0000   0.0000   0.2618
  19.400   1.5130   0.12289   0.11723  -0.0735  0.0388  1.0000  -6.1811   0.0000   0.0000   0.0000   0.2619
  19.500   1.5124   0.12434   0.11874  -0.0739  0.0382  1.0000  -6.2106   0.0000   0.0000   0.0000   0.2619
  19.600   1.5121   0.12571   0.12015  -0.0742  0.0377  1.0000  -6.2428   0.0000   0.0000   0.0000   0.2619
  19.700   1.5121   0.12703   0.12149  -0.0746  0.0373  1.0000  -6.2771   0.0000   0.0000   0.0000   0.2619
  19.800   1.5123   0.12829   0.12277  -0.0749  0.0368  1.0000  -6.3133   0.0000   0.0000   0.0000   0.2618
  19.900   1.5129   0.12948   0.12397  -0.0752  0.0364  1.0000  -6.3524   0.0000   0.0000   0.0000   0.2617
  20.000   1.5140   0.13053   0.12502  -0.0755  0.0360  1.0000  -6.3955   0.0000   0.0000   0.0000   0.2616


