xflr5 v6.57

 Calculated polar for: QX0023

 1 1 Reynolds number fixed          Mach number fixed         

 xtrf =   1.000 (top)        1.000 (bottom)
 Mach =   0.000     Re =     0.220 e 6     Ncrit =   9.000

  alpha     CL        CD       CDp       Cm    Top Xtr Bot Xtr   Cpmin    Chinge    XCp    
 ------- -------- --------- --------- -------- ------- ------- -------- --------- ---------
  -9.600  -0.1237   0.09202   0.08838  -0.0955  0.9240  0.0634  -1.6723   0.0000   0.0000   0.0000  -0.5777
  -9.500  -0.1190   0.09124   0.08759  -0.0955  0.9216  0.0641  -1.6448   0.0000   0.0000   0.0000  -0.6091
  -9.400  -0.1157   0.09033   0.08668  -0.0956  0.9195  0.0649  -1.6299   0.0000   0.0000   0.0000  -0.6337
  -9.300  -0.1141   0.08921   0.08556  -0.0960  0.9175  0.0660  -1.6316   0.0000   0.0000   0.0000  -0.6491
  -9.200  -0.1378   0.08466   0.08104  -0.1039  0.9124  0.0683  -1.9095   0.0000   0.0000   0.0000  -0.5515
  -8.000  -0.2067   0.04027   0.03542  -0.1403  0.8792  0.0508  -3.2957   0.0000   0.0000   0.0000  -0.4591
  -7.900  -0.1990   0.03965   0.03484  -0.1403  0.8771  0.0511  -3.2379   0.0000   0.0000   0.0000  -0.4861
  -7.800  -0.1908   0.03912   0.03435  -0.1402  0.8754  0.0513  -3.1774   0.0000   0.0000   0.0000  -0.5167
  -7.700  -0.1821   0.03875   0.03399  -0.1402  0.8740  0.0517  -3.1110   0.0000   0.0000   0.0000  -0.5525
  -7.600  -0.1726   0.03862   0.03388  -0.1400  0.8729  0.0522  -3.0340   0.0000   0.0000   0.0000  -0.5956
  -7.500  -0.1775   0.03387   0.02850  -0.1413  0.8701  0.0495  -3.2299   0.0000   0.0000   0.0000  -0.5795
  -7.400  -0.1722   0.03240   0.02681  -0.1414  0.8679  0.0495  -3.2359   0.0000   0.0000   0.0000  -0.6056
  -7.300  -0.1660   0.03098   0.02512  -0.1416  0.8663  0.0497  -3.2390   0.0000   0.0000   0.0000  -0.6380
  -7.200  -0.1587   0.02975   0.02361  -0.1417  0.8650  0.0501  -3.2390   0.0000   0.0000   0.0000  -0.6792
  -7.100  -0.1504   0.02869   0.02228  -0.1417  0.8639  0.0504  -3.2329   0.0000   0.0000   0.0000  -0.7299
  -7.000  -0.1432   0.02794   0.02130  -0.1416  0.8614  0.0506  -3.2210   0.0000   0.0000   0.0000  -0.7784
  -6.900  -0.1347   0.02709   0.02036  -0.1415  0.8596  0.0509  -3.1892   0.0000   0.0000   0.0000  -0.8422
  -6.800  -0.1253   0.02641   0.01965  -0.1415  0.8582  0.0512  -3.1435   0.0000   0.0000   0.0000  -0.9236
  -6.700  -0.1151   0.02591   0.01913  -0.1415  0.8570  0.0516  -3.0891   0.0000   0.0000   0.0000  -1.0260
  -6.600  -0.1048   0.02543   0.01862  -0.1415  0.8560  0.0521  -3.0356   0.0000   0.0000   0.0000  -1.1513
  -6.500  -0.0947   0.02498   0.01810  -0.1415  0.8548  0.0525  -2.9865   0.0000   0.0000   0.0000  -1.2989
  -6.400  -0.0860   0.02460   0.01767  -0.1413  0.8524  0.0530  -2.9438   0.0000   0.0000   0.0000  -1.4528
  -6.300  -0.0762   0.02415   0.01713  -0.1412  0.8508  0.0536  -2.9002   0.0000   0.0000   0.0000  -1.6689
  -6.200  -0.0660   0.02367   0.01653  -0.1412  0.8494  0.0542  -2.8570   0.0000   0.0000   0.0000  -1.9642
  -6.100  -0.0554   0.02321   0.01594  -0.1411  0.8483  0.0550  -2.8133   0.0000   0.0000   0.0000  -2.3853
  -6.000  -0.0445   0.02280   0.01534  -0.1411  0.8473  0.0559  -2.7741   0.0000   0.0000   0.0000  -3.0290
  -5.900  -0.0343   0.02234   0.01482  -0.1410  0.8461  0.0568  -2.7325   0.0000   0.0000   0.0000  -4.0041
  -5.800  -0.0253   0.02211   0.01463  -0.1409  0.8437  0.0576  -2.6818   0.0000   0.0000   0.0000  -5.4979
  -5.700  -0.0151   0.02187   0.01440  -0.1408  0.8420  0.0585  -2.6298   0.0000   0.0000   0.0000  -9.3787
  -5.600  -0.0044   0.02159   0.01408  -0.1408  0.8407  0.0594  -2.5816   0.0000   0.0000   0.0000  -32.8351
  -5.500   0.0066   0.02126   0.01368  -0.1407  0.8396  0.0604  -2.5376   0.0000   0.0000   0.0000  22.1936
  -5.400   0.0179   0.02092   0.01323  -0.1407  0.8387  0.0614  -2.4961   0.0000   0.0000   0.0000   8.3589
  -5.300   0.0293   0.02059   0.01278  -0.1406  0.8378  0.0624  -2.4545   0.0000   0.0000   0.0000   5.1937
  -5.200   0.0378   0.02034   0.01261  -0.1404  0.8352  0.0632  -2.4086   0.0000   0.0000   0.0000   4.0769
  -5.100   0.0479   0.02013   0.01242  -0.1403  0.8335  0.0643  -2.3574   0.0000   0.0000   0.0000   3.2649
  -5.000   0.0587   0.01993   0.01221  -0.1403  0.8321  0.0657  -2.3060   0.0000   0.0000   0.0000   2.7077
  -4.900   0.0699   0.01972   0.01193  -0.1403  0.8310  0.0673  -2.2573   0.0000   0.0000   0.0000   2.3128
  -4.800   0.0812   0.01944   0.01160  -0.1402  0.8300  0.0689  -2.2095   0.0000   0.0000   0.0000   2.0247
  -4.700   0.0924   0.01916   0.01137  -0.1403  0.8292  0.0704  -2.1544   0.0000   0.0000   0.0000   1.8096
  -4.600   0.1017   0.01907   0.01129  -0.1401  0.8270  0.0719  -2.1069   0.0000   0.0000   0.0000   1.6633
  -4.500   0.1117   0.01894   0.01113  -0.1399  0.8250  0.0736  -2.0615   0.0000   0.0000   0.0000   1.5348
  -4.400   0.1225   0.01873   0.01089  -0.1399  0.8235  0.0753  -2.0213   0.0000   0.0000   0.0000   1.4207
  -4.300   0.1333   0.01849   0.01071  -0.1399  0.8223  0.0771  -1.9736   0.0000   0.0000   0.0000   1.3251
  -4.200   0.1447   0.01831   0.01052  -0.1399  0.8213  0.0795  -1.9269   0.0000   0.0000   0.0000   1.2401
  -4.100   0.1563   0.01811   0.01027  -0.1399  0.8204  0.0821  -1.8830   0.0000   0.0000   0.0000   1.1662
  -4.000   0.1669   0.01792   0.01014  -0.1399  0.8191  0.0845  -1.8360   0.0000   0.0000   0.0000   1.1072
  -3.900   0.1759   0.01790   0.01012  -0.1396  0.8165  0.0872  -1.7963   0.0000   0.0000   0.0000   1.0617
  -3.800   0.1863   0.01773   0.00996  -0.1396  0.8148  0.0900  -1.7537   0.0000   0.0000   0.0000   1.0153
  -3.700   0.1974   0.01756   0.00983  -0.1396  0.8136  0.0934  -1.7076   0.0000   0.0000   0.0000   0.9721
  -3.600   0.2087   0.01737   0.00964  -0.1396  0.8125  0.0975  -1.6625   0.0000   0.0000   0.0000   0.9325
  -3.500   0.2204   0.01720   0.00947  -0.1397  0.8115  0.1024  -1.6160   0.0000   0.0000   0.0000   0.8964
  -3.400   0.2320   0.01699   0.00930  -0.1397  0.8107  0.1076  -1.5693   0.0000   0.0000   0.0000   0.8639
  -3.300   0.2409   0.01696   0.00931  -0.1395  0.8081  0.1132  -1.5300   0.0000   0.0000   0.0000   0.8400
  -3.200   0.2512   0.01686   0.00924  -0.1395  0.8061  0.1205  -1.4876   0.0000   0.0000   0.0000   0.8154
  -3.100   0.2622   0.01670   0.00913  -0.1395  0.8047  0.1296  -1.4429   0.0000   0.0000   0.0000   0.7914
  -3.000   0.2736   0.01652   0.00901  -0.1396  0.8035  0.1412  -1.3973   0.0000   0.0000   0.0000   0.7688
  -2.900   0.2853   0.01633   0.00887  -0.1397  0.8025  0.1557  -1.3512   0.0000   0.0000   0.0000   0.7476
  -2.800   0.2971   0.01615   0.00874  -0.1398  0.8016  0.1729  -1.3079   0.0000   0.0000   0.0000   0.7279
  -2.700   0.3074   0.01607   0.00874  -0.1398  0.7999  0.1899  -1.2677   0.0000   0.0000   0.0000   0.7116
  -2.600   0.3168   0.01604   0.00880  -0.1397  0.7974  0.2069  -1.2291   0.0000   0.0000   0.0000   0.6973
  -2.500   0.3276   0.01594   0.00876  -0.1397  0.7958  0.2258  -1.1872   0.0000   0.0000   0.0000   0.6822
  -2.400   0.3391   0.01583   0.00870  -0.1398  0.7945  0.2459  -1.1441   0.0000   0.0000   0.0000   0.6676
  -2.300   0.3507   0.01569   0.00862  -0.1399  0.7934  0.2665  -1.1005   0.0000   0.0000   0.0000   0.6538
  -2.200   0.3626   0.01553   0.00853  -0.1400  0.7925  0.2877  -1.0568   0.0000   0.0000   0.0000   0.6407
  -2.100   0.3746   0.01538   0.00844  -0.1401  0.7917  0.3108  -1.0130   0.0000   0.0000   0.0000   0.6283
  -2.000   0.3829   0.01545   0.00861  -0.1399  0.7886  0.3322  -0.9770   0.0000   0.0000   0.0000   0.6193
  -1.900   0.3933   0.01538   0.00863  -0.1399  0.7867  0.3573  -0.9368   0.0000   0.0000   0.0000   0.6091
  -1.800   0.4045   0.01526   0.00859  -0.1399  0.7853  0.3857  -0.8955   0.0000   0.0000   0.0000   0.5990
  -1.700   0.4160   0.01511   0.00854  -0.1400  0.7842  0.4172  -0.8564   0.0000   0.0000   0.0000   0.5893
  -1.600   0.4276   0.01494   0.00848  -0.1400  0.7832  0.4516  -0.8180   0.0000   0.0000   0.0000   0.5800
  -1.500   0.4393   0.01477   0.00843  -0.1400  0.7823  0.4889  -0.7797   0.0000   0.0000   0.0000   0.5710
  -1.400   0.4478   0.01480   0.00859  -0.1397  0.7796  0.5234  -0.7662   0.0000   0.0000   0.0000   0.5639
  -1.300   0.4575   0.01477   0.00867  -0.1394  0.7775  0.5589  -0.7724   0.0000   0.0000   0.0000   0.5565
  -1.200   0.4679   0.01467   0.00868  -0.1392  0.7759  0.5940  -0.7795   0.0000   0.0000   0.0000   0.5490
  -1.100   0.4786   0.01456   0.00868  -0.1389  0.7747  0.6276  -0.7869   0.0000   0.0000   0.0000   0.5416
  -1.000   0.4896   0.01446   0.00864  -0.1387  0.7736  0.6613  -0.7947   0.0000   0.0000   0.0000   0.5343
  -0.900   0.5006   0.01435   0.00859  -0.1384  0.7727  0.6902  -0.8025   0.0000   0.0000   0.0000   0.5273
  -0.800   0.5090   0.01441   0.00872  -0.1378  0.7703  0.7149  -0.8085   0.0000   0.0000   0.0000   0.5214
  -0.700   0.5176   0.01444   0.00882  -0.1373  0.7679  0.7376  -0.8148   0.0000   0.0000   0.0000   0.5156
  -0.600   0.5272   0.01440   0.00882  -0.1368  0.7663  0.7598  -0.8219   0.0000   0.0000   0.0000   0.5096
  -0.500   0.5373   0.01432   0.00878  -0.1363  0.7649  0.7816  -0.8294   0.0000   0.0000   0.0000   0.5037
  -0.400   0.5472   0.01423   0.00872  -0.1358  0.7638  0.8019  -0.8371   0.0000   0.0000   0.0000   0.4979
  -0.300   0.5572   0.01412   0.00864  -0.1352  0.7629  0.8221  -0.8449   0.0000   0.0000   0.0000   0.4922
  -0.200   0.5641   0.01419   0.00875  -0.1342  0.7603  0.8416  -0.8504   0.0000   0.0000   0.0000   0.4874
  -0.100   0.5711   0.01420   0.00882  -0.1332  0.7579  0.8612  -0.8563   0.0000   0.0000   0.0000   0.4826
   0.000   0.5792   0.01414   0.00878  -0.1323  0.7562  0.8826  -0.8633   0.0000   0.0000   0.0000   0.4775
   0.100   0.5888   0.01404   0.00869  -0.1316  0.7549  0.9062  -0.8713   0.0000   0.0000   0.0000   0.4725
   0.200   0.6015   0.01391   0.00856  -0.1316  0.7538  0.9325  -0.8810   0.0000   0.0000   0.0000   0.4675
   0.300   0.6199   0.01378   0.00840  -0.1328  0.7529  0.9629  -0.8941   0.0000   0.0000   0.0000   0.4628
   0.400   0.6363   0.01382   0.00843  -0.1341  0.7505  1.0000  -0.9055   0.0000   0.0000   0.0000   0.4591
   0.500   0.6466   0.01391   0.00849  -0.1341  0.7479  1.0000  -0.9135   0.0000   0.0000   0.0000   0.4557
   0.600   0.6586   0.01391   0.00845  -0.1344  0.7462  1.0000  -0.9230   0.0000   0.0000   0.0000   0.4521
   0.700   0.6713   0.01387   0.00836  -0.1346  0.7448  1.0000  -0.9331   0.0000   0.0000   0.0000   0.4485
   0.800   0.6843   0.01382   0.00826  -0.1350  0.7436  1.0000  -0.9437   0.0000   0.0000   0.0000   0.4450
   0.900   0.6976   0.01376   0.00815  -0.1353  0.7426  1.0000  -0.9547   0.0000   0.0000   0.0000   0.4415
   1.000   0.7058   0.01393   0.00833  -0.1350  0.7392  1.0000  -0.9621   0.0000   0.0000   0.0000   0.4387
   1.100   0.7169   0.01397   0.00834  -0.1350  0.7370  1.0000  -0.9716   0.0000   0.0000   0.0000   0.4357
   1.200   0.7291   0.01394   0.00828  -0.1352  0.7354  1.0000  -0.9822   0.0000   0.0000   0.0000   0.4326
   1.300   0.7419   0.01389   0.00819  -0.1355  0.7341  1.0000  -0.9933   0.0000   0.0000   0.0000   0.4296
   1.400   0.7550   0.01383   0.00808  -0.1357  0.7330  1.0000  -1.0047   0.0000   0.0000   0.0000   0.4267
   1.500   0.7648   0.01392   0.00817  -0.1356  0.7304  1.0000  -1.0138   0.0000   0.0000   0.0000   0.4240
   1.600   0.7748   0.01400   0.00824  -0.1355  0.7276  1.0000  -1.0231   0.0000   0.0000   0.0000   0.4214
   1.700   0.7866   0.01398   0.00820  -0.1356  0.7258  1.0000  -1.0340   0.0000   0.0000   0.0000   0.4188
   1.800   0.7992   0.01394   0.00811  -0.1358  0.7243  1.0000  -1.0458   0.0000   0.0000   0.0000   0.4162
   1.900   0.8122   0.01387   0.00801  -0.1360  0.7230  1.0000  -1.0581   0.0000   0.0000   0.0000   0.4137
   2.000   0.8230   0.01391   0.00804  -0.1360  0.7208  1.0000  -1.0688   0.0000   0.0000   0.0000   0.4113
   2.100   0.8323   0.01401   0.00814  -0.1358  0.7177  1.0000  -1.0784   0.0000   0.0000   0.0000   0.4090
   2.200   0.8440   0.01400   0.00811  -0.1358  0.7157  1.0000  -1.0901   0.0000   0.0000   0.0000   0.4067
   2.300   0.8565   0.01395   0.00803  -0.1360  0.7141  1.0000  -1.1025   0.0000   0.0000   0.0000   0.4044
   2.400   0.8695   0.01388   0.00793  -0.1363  0.7127  1.0000  -1.1154   0.0000   0.0000   0.0000   0.4022
   2.500   0.8797   0.01394   0.00798  -0.1361  0.7102  1.0000  -1.1262   0.0000   0.0000   0.0000   0.4001
   2.600   0.8894   0.01401   0.00806  -0.1359  0.7072  1.0000  -1.1368   0.0000   0.0000   0.0000   0.3981
   2.700   0.9012   0.01399   0.00802  -0.1360  0.7051  1.0000  -1.1493   0.0000   0.0000   0.0000   0.3960
   2.800   0.9137   0.01393   0.00794  -0.1362  0.7034  1.0000  -1.1626   0.0000   0.0000   0.0000   0.3940
   2.900   0.9269   0.01386   0.00783  -0.1365  0.7020  1.0000  -1.1768   0.0000   0.0000   0.0000   0.3920
   3.000   0.9355   0.01398   0.00797  -0.1361  0.6985  1.0000  -1.1873   0.0000   0.0000   0.0000   0.3902
   3.100   0.9461   0.01400   0.00798  -0.1360  0.6958  1.0000  -1.1995   0.0000   0.0000   0.0000   0.3883
   3.200   0.9583   0.01396   0.00792  -0.1361  0.6939  1.0000  -1.2132   0.0000   0.0000   0.0000   0.3865
   3.300   0.9712   0.01389   0.00782  -0.1363  0.6922  1.0000  -1.2277   0.0000   0.0000   0.0000   0.3847
   3.400   0.9815   0.01393   0.00787  -0.1362  0.6895  1.0000  -1.2402   0.0000   0.0000   0.0000   0.3829
   3.500   0.9911   0.01399   0.00795  -0.1360  0.6862  1.0000  -1.2525   0.0000   0.0000   0.0000   0.3812
   3.600   1.0029   0.01396   0.00790  -0.1360  0.6839  1.0000  -1.2675   0.0000   0.0000   0.0000   0.3795
   3.700   1.0156   0.01390   0.00781  -0.1362  0.6820  1.0000  -1.2833   0.0000   0.0000   0.0000   0.3779
   3.800   1.0265   0.01392   0.00782  -0.1362  0.6795  1.0000  -1.2977   0.0000   0.0000   0.0000   0.3763
   3.900   1.0357   0.01399   0.00791  -0.1359  0.6759  1.0000  -1.3110   0.0000   0.0000   0.0000   0.3747
   4.000   1.0474   0.01396   0.00787  -0.1359  0.6734  1.0000  -1.3264   0.0000   0.0000   0.0000   0.3731
   4.100   1.0600   0.01390   0.00778  -0.1361  0.6714  1.0000  -1.3429   0.0000   0.0000   0.0000   0.3716
   4.200   1.0700   0.01395   0.00784  -0.1359  0.6682  1.0000  -1.3577   0.0000   0.0000   0.0000   0.3701
   4.300   1.0798   0.01399   0.00790  -0.1357  0.6648  1.0000  -1.3730   0.0000   0.0000   0.0000   0.3686
   4.400   1.0915   0.01396   0.00785  -0.1357  0.6622  1.0000  -1.3903   0.0000   0.0000   0.0000   0.3671
   4.500   1.1044   0.01390   0.00775  -0.1359  0.6601  1.0000  -1.4087   0.0000   0.0000   0.0000   0.3657
   4.600   1.1127   0.01400   0.00789  -0.1355  0.6560  1.0000  -1.4231   0.0000   0.0000   0.0000   0.3643
   4.700   1.1234   0.01400   0.00789  -0.1354  0.6528  1.0000  -1.4401   0.0000   0.0000   0.0000   0.3629
   4.800   1.1357   0.01395   0.00781  -0.1355  0.6503  1.0000  -1.4587   0.0000   0.0000   0.0000   0.3615
   4.900   1.1453   0.01400   0.00789  -0.1352  0.6466  1.0000  -1.4751   0.0000   0.0000   0.0000   0.3602
   5.000   1.1552   0.01404   0.00793  -0.1350  0.6428  1.0000  -1.4929   0.0000   0.0000   0.0000   0.3588
   5.100   1.1671   0.01400   0.00787  -0.1350  0.6400  1.0000  -1.5131   0.0000   0.0000   0.0000   0.3575
   5.200   1.1771   0.01404   0.00792  -0.1348  0.6363  1.0000  -1.5315   0.0000   0.0000   0.0000   0.3562
   5.300   1.1865   0.01408   0.00797  -0.1345  0.6322  1.0000  -1.5498   0.0000   0.0000   0.0000   0.3549
   5.400   1.1984   0.01406   0.00792  -0.1346  0.6291  1.0000  -1.5709   0.0000   0.0000   0.0000   0.3537
   5.500   1.2076   0.01411   0.00799  -0.1342  0.6249  1.0000  -1.5893   0.0000   0.0000   0.0000   0.3524
   5.600   1.2174   0.01414   0.00803  -0.1340  0.6207  1.0000  -1.6105   0.0000   0.0000   0.0000   0.3512
   5.700   1.2294   0.01412   0.00798  -0.1341  0.6175  1.0000  -1.6343   0.0000   0.0000   0.0000   0.3500
   5.800   1.2374   0.01421   0.00811  -0.1335  0.6125  1.0000  -1.6540   0.0000   0.0000   0.0000   0.3488
   5.900   1.2479   0.01423   0.00811  -0.1334  0.6085  1.0000  -1.6785   0.0000   0.0000   0.0000   0.3476
   6.000   1.2580   0.01427   0.00814  -0.1332  0.6044  1.0000  -1.7040   0.0000   0.0000   0.0000   0.3464
   6.100   1.2669   0.01433   0.00822  -0.1328  0.5995  1.0000  -1.7285   0.0000   0.0000   0.0000   0.3452
   6.200   1.2783   0.01433   0.00819  -0.1328  0.5958  1.0000  -1.7574   0.0000   0.0000   0.0000   0.3441
   6.300   1.2860   0.01443   0.00833  -0.1322  0.5902  1.0000  -1.7840   0.0000   0.0000   0.0000   0.3429
   6.400   1.2964   0.01446   0.00833  -0.1320  0.5859  1.0000  -1.8155   0.0000   0.0000   0.0000   0.3418
   6.500   1.3048   0.01455   0.00845  -0.1316  0.5805  1.0000  -1.8441   0.0000   0.0000   0.0000   0.3406
   6.600   1.3145   0.01461   0.00849  -0.1313  0.5757  1.0000  -1.8748   0.0000   0.0000   0.0000   0.3395
   6.700   1.3232   0.01469   0.00858  -0.1309  0.5704  1.0000  -1.9052   0.0000   0.0000   0.0000   0.3384
   6.800   1.3323   0.01477   0.00864  -0.1305  0.5651  1.0000  -1.9367   0.0000   0.0000   0.0000   0.3373
   6.900   1.3409   0.01486   0.00874  -0.1301  0.5596  1.0000  -1.9676   0.0000   0.0000   0.0000   0.3362
   7.000   1.3497   0.01494   0.00881  -0.1296  0.5540  1.0000  -1.9994   0.0000   0.0000   0.0000   0.3351
   7.100   1.3579   0.01505   0.00892  -0.1291  0.5482  1.0000  -2.0312   0.0000   0.0000   0.0000   0.3340
   7.200   1.3666   0.01515   0.00899  -0.1287  0.5425  1.0000  -2.0643   0.0000   0.0000   0.0000   0.3329
   7.300   1.3742   0.01527   0.00913  -0.1281  0.5362  1.0000  -2.0954   0.0000   0.0000   0.0000   0.3318
   7.400   1.3829   0.01538   0.00920  -0.1277  0.5305  1.0000  -2.1293   0.0000   0.0000   0.0000   0.3308
   7.500   1.3898   0.01552   0.00936  -0.1270  0.5237  1.0000  -2.1610   0.0000   0.0000   0.0000   0.3297
   7.600   1.3978   0.01565   0.00946  -0.1264  0.5177  1.0000  -2.1948   0.0000   0.0000   0.0000   0.3286
   7.700   1.4047   0.01580   0.00961  -0.1257  0.5109  1.0000  -2.2269   0.0000   0.0000   0.0000   0.3275
   7.800   1.4116   0.01596   0.00976  -0.1250  0.5042  1.0000  -2.2591   0.0000   0.0000   0.0000   0.3264
   7.900   1.4187   0.01612   0.00988  -0.1244  0.4977  1.0000  -2.2920   0.0000   0.0000   0.0000   0.3253
   8.000   1.4245   0.01630   0.01007  -0.1235  0.4905  1.0000  -2.3225   0.0000   0.0000   0.0000   0.3242
   8.100   1.4308   0.01648   0.01023  -0.1227  0.4837  1.0000  -2.3540   0.0000   0.0000   0.0000   0.3231
   8.200   1.4366   0.01668   0.01041  -0.1219  0.4767  1.0000  -2.3895   0.0000   0.0000   0.0000   0.3220
   8.300   1.4417   0.01688   0.01061  -0.1209  0.4695  1.0000  -2.4285   0.0000   0.0000   0.0000   0.3209
   8.400   1.4465   0.01709   0.01078  -0.1198  0.4629  1.0000  -2.4678   0.0000   0.0000   0.0000   0.3197
   8.500   1.4506   0.01732   0.01100  -0.1187  0.4558  1.0000  -2.5071   0.0000   0.0000   0.0000   0.3185
   8.600   1.4549   0.01756   0.01122  -0.1176  0.4488  1.0000  -2.5470   0.0000   0.0000   0.0000   0.3174
   8.700   1.4594   0.01782   0.01144  -0.1166  0.4423  1.0000  -2.5876   0.0000   0.0000   0.0000   0.3163
   8.800   1.4632   0.01809   0.01171  -0.1155  0.4350  1.0000  -2.6266   0.0000   0.0000   0.0000   0.3151
   8.900   1.4672   0.01838   0.01198  -0.1145  0.4283  1.0000  -2.6663   0.0000   0.0000   0.0000   0.3140
   9.000   1.4711   0.01868   0.01225  -0.1134  0.4215  1.0000  -2.7058   0.0000   0.0000   0.0000   0.3130
   9.100   1.4748   0.01899   0.01256  -0.1124  0.4145  1.0000  -2.7447   0.0000   0.0000   0.0000   0.3119
   9.200   1.4784   0.01932   0.01287  -0.1113  0.4079  1.0000  -2.7839   0.0000   0.0000   0.0000   0.3108
   9.300   1.4818   0.01967   0.01320  -0.1103  0.4010  1.0000  -2.8226   0.0000   0.0000   0.0000   0.3098
   9.400   1.4852   0.02002   0.01355  -0.1093  0.3942  1.0000  -2.8613   0.0000   0.0000   0.0000   0.3088
   9.500   1.4885   0.02040   0.01389  -0.1083  0.3878  1.0000  -2.8998   0.0000   0.0000   0.0000   0.3077
   9.600   1.4917   0.02078   0.01427  -0.1073  0.3808  1.0000  -2.9384   0.0000   0.0000   0.0000   0.3067
   9.700   1.4949   0.02117   0.01465  -0.1063  0.3743  1.0000  -2.9769   0.0000   0.0000   0.0000   0.3057
   9.800   1.4978   0.02159   0.01504  -0.1053  0.3679  1.0000  -3.0149   0.0000   0.0000   0.0000   0.3048
   9.900   1.5010   0.02200   0.01546  -0.1044  0.3611  1.0000  -3.0535   0.0000   0.0000   0.0000   0.3038
  10.000   1.5037   0.02245   0.01588  -0.1034  0.3550  1.0000  -3.0913   0.0000   0.0000   0.0000   0.3029
  10.100   1.5065   0.02290   0.01632  -0.1024  0.3483  1.0000  -3.1293   0.0000   0.0000   0.0000   0.3019
  10.200   1.5094   0.02335   0.01677  -0.1015  0.3419  1.0000  -3.1674   0.0000   0.0000   0.0000   0.3010
  10.300   1.5117   0.02385   0.01724  -0.1005  0.3358  1.0000  -3.2042   0.0000   0.0000   0.0000   0.3001
  10.400   1.5145   0.02433   0.01773  -0.0997  0.3290  1.0000  -3.2425   0.0000   0.0000   0.0000   0.2992
  10.500   1.5168   0.02484   0.01822  -0.0987  0.3229  1.0000  -3.2795   0.0000   0.0000   0.0000   0.2983
  10.600   1.5191   0.02537   0.01874  -0.0978  0.3165  1.0000  -3.3163   0.0000   0.0000   0.0000   0.2974
  10.700   1.5215   0.02589   0.01926  -0.0970  0.3101  1.0000  -3.3538   0.0000   0.0000   0.0000   0.2965
  10.800   1.5232   0.02647   0.01981  -0.0960  0.3042  1.0000  -3.3892   0.0000   0.0000   0.0000   0.2957
  10.900   1.5256   0.02701   0.02036  -0.0952  0.2976  1.0000  -3.4268   0.0000   0.0000   0.0000   0.2948
  11.000   1.5275   0.02759   0.02093  -0.0943  0.2915  1.0000  -3.4630   0.0000   0.0000   0.0000   0.2940
  11.100   1.5291   0.02821   0.02152  -0.0934  0.2854  1.0000  -3.4981   0.0000   0.0000   0.0000   0.2931
  11.200   1.5312   0.02879   0.02211  -0.0926  0.2790  1.0000  -3.5350   0.0000   0.0000   0.0000   0.2923
  11.300   1.5325   0.02944   0.02273  -0.0917  0.2731  1.0000  -3.5696   0.0000   0.0000   0.0000   0.2915
  11.400   1.5341   0.03008   0.02337  -0.0909  0.2668  1.0000  -3.6051   0.0000   0.0000   0.0000   0.2907
  11.500   1.5357   0.03072   0.02401  -0.0901  0.2607  1.0000  -3.6407   0.0000   0.0000   0.0000   0.2899
  11.600   1.5363   0.03144   0.02470  -0.0892  0.2550  1.0000  -3.6734   0.0000   0.0000   0.0000   0.2891
  11.700   1.5380   0.03210   0.02537  -0.0884  0.2486  1.0000  -3.7092   0.0000   0.0000   0.0000   0.2884
  11.800   1.5391   0.03280   0.02606  -0.0876  0.2426  1.0000  -3.7432   0.0000   0.0000   0.0000   0.2876
  11.900   1.5395   0.03356   0.02680  -0.0868  0.2369  1.0000  -3.7753   0.0000   0.0000   0.0000   0.2869
  12.000   1.5408   0.03427   0.02751  -0.0860  0.2305  1.0000  -3.8101   0.0000   0.0000   0.0000   0.2861
  12.100   1.5412   0.03505   0.02827  -0.0852  0.2248  1.0000  -3.8423   0.0000   0.0000   0.0000   0.2854
  12.200   1.5415   0.03585   0.02906  -0.0844  0.2189  1.0000  -3.8739   0.0000   0.0000   0.0000   0.2847
  12.300   1.5424   0.03662   0.02983  -0.0837  0.2127  1.0000  -3.9074   0.0000   0.0000   0.0000   0.2840
  12.400   1.5424   0.03746   0.03065  -0.0829  0.2071  1.0000  -3.9382   0.0000   0.0000   0.0000   0.2832
  12.500   1.5425   0.03831   0.03148  -0.0822  0.2012  1.0000  -3.9692   0.0000   0.0000   0.0000   0.2826
  12.600   1.5430   0.03914   0.03231  -0.0815  0.1952  1.0000  -4.0014   0.0000   0.0000   0.0000   0.2819
  12.700   1.5426   0.04005   0.03320  -0.0808  0.1898  1.0000  -4.0311   0.0000   0.0000   0.0000   0.2812
  12.800   1.5426   0.04096   0.03410  -0.0801  0.1841  1.0000  -4.0616   0.0000   0.0000   0.0000   0.2806
  12.900   1.5429   0.04185   0.03498  -0.0795  0.1784  1.0000  -4.0930   0.0000   0.0000   0.0000   0.2799
  13.000   1.5422   0.04283   0.03595  -0.0788  0.1732  1.0000  -4.1216   0.0000   0.0000   0.0000   0.2793
  13.100   1.5422   0.04378   0.03689  -0.0782  0.1677  1.0000  -4.1519   0.0000   0.0000   0.0000   0.2787
  13.200   1.5422   0.04473   0.03784  -0.0776  0.1624  1.0000  -4.1823   0.0000   0.0000   0.0000   0.2781
  13.300   1.5410   0.04580   0.03888  -0.0769  0.1578  1.0000  -4.2087   0.0000   0.0000   0.0000   0.2775
  13.400   1.5414   0.04674   0.03982  -0.0764  0.1525  1.0000  -4.2403   0.0000   0.0000   0.0000   0.2770
  13.500   1.5409   0.04777   0.04084  -0.0758  0.1480  1.0000  -4.2687   0.0000   0.0000   0.0000   0.2764
  13.600   1.5403   0.04882   0.04188  -0.0753  0.1435  1.0000  -4.2974   0.0000   0.0000   0.0000   0.2758
  13.700   1.5403   0.04983   0.04289  -0.0748  0.1390  1.0000  -4.3296   0.0000   0.0000   0.0000   0.2753
  13.800   1.5391   0.05096   0.04401  -0.0742  0.1352  1.0000  -4.3577   0.0000   0.0000   0.0000   0.2748
  13.900   1.5394   0.05196   0.04502  -0.0738  0.1308  1.0000  -4.3909   0.0000   0.0000   0.0000   0.2743
  14.000   1.5379   0.05315   0.04618  -0.0733  0.1275  1.0000  -4.4179   0.0000   0.0000   0.0000   0.2738
  14.100   1.5384   0.05415   0.04721  -0.0729  0.1235  1.0000  -4.4513   0.0000   0.0000   0.0000   0.2733
  14.200   1.5370   0.05536   0.04839  -0.0724  0.1205  1.0000  -4.4783   0.0000   0.0000   0.0000   0.2728
  14.300   1.5374   0.05639   0.04945  -0.0720  0.1168  1.0000  -4.5110   0.0000   0.0000   0.0000   0.2723
  14.400   1.5362   0.05758   0.05063  -0.0716  0.1140  1.0000  -4.5388   0.0000   0.0000   0.0000   0.2718
  14.500   1.5360   0.05869   0.05176  -0.0712  0.1109  1.0000  -4.5691   0.0000   0.0000   0.0000   0.2714
  14.600   1.5354   0.05984   0.05292  -0.0709  0.1080  1.0000  -4.5985   0.0000   0.0000   0.0000   0.2709
  14.700   1.5338   0.06111   0.05417  -0.0705  0.1057  1.0000  -4.6243   0.0000   0.0000   0.0000   0.2705
  14.800   1.5343   0.06217   0.05527  -0.0702  0.1027  1.0000  -4.6568   0.0000   0.0000   0.0000   0.2701
  14.900   1.5330   0.06343   0.05652  -0.0698  0.1005  1.0000  -4.6834   0.0000   0.0000   0.0000   0.2697
  15.000   1.5323   0.06463   0.05773  -0.0695  0.0982  1.0000  -4.7116   0.0000   0.0000   0.0000   0.2693
  15.100   1.5323   0.06577   0.05890  -0.0692  0.0957  1.0000  -4.7423   0.0000   0.0000   0.0000   0.2689
  15.200   1.5307   0.06709   0.06021  -0.0690  0.0938  1.0000  -4.7679   0.0000   0.0000   0.0000   0.2685
  15.300   1.5302   0.06829   0.06143  -0.0687  0.0917  1.0000  -4.7964   0.0000   0.0000   0.0000   0.2681
  15.400   1.5302   0.06946   0.06263  -0.0685  0.0895  1.0000  -4.8265   0.0000   0.0000   0.0000   0.2678
  15.500   1.5289   0.07077   0.06394  -0.0683  0.0877  1.0000  -4.8527   0.0000   0.0000   0.0000   0.2674
  15.600   1.5278   0.07205   0.06522  -0.0680  0.0860  1.0000  -4.8789   0.0000   0.0000   0.0000   0.2671
  15.700   1.5279   0.07323   0.06644  -0.0678  0.0839  1.0000  -4.9090   0.0000   0.0000   0.0000   0.2667
  15.800   1.5271   0.07450   0.06773  -0.0677  0.0822  1.0000  -4.9365   0.0000   0.0000   0.0000   0.2664
  15.900   1.5252   0.07587   0.06907  -0.0675  0.0809  1.0000  -4.9601   0.0000   0.0000   0.0000   0.2661
  16.000   1.5253   0.07707   0.07032  -0.0673  0.0790  1.0000  -4.9892   0.0000   0.0000   0.0000   0.2658
  16.100   1.5249   0.07832   0.07162  -0.0672  0.0773  1.0000  -5.0173   0.0000   0.0000   0.0000   0.2655
  16.200   1.5238   0.07966   0.07295  -0.0671  0.0759  1.0000  -5.0434   0.0000   0.0000   0.0000   0.2652
  16.300   1.5223   0.08101   0.07427  -0.0670  0.0747  1.0000  -5.0677   0.0000   0.0000   0.0000   0.2649
  16.400   1.5224   0.08225   0.07559  -0.0669  0.0729  1.0000  -5.0998   0.0000   0.0000   0.0000   0.2647
  16.500   1.5219   0.08355   0.07692  -0.0668  0.0714  1.0000  -5.1350   0.0000   0.0000   0.0000   0.2644
  16.600   1.5208   0.08490   0.07827  -0.0668  0.0702  1.0000  -5.1685   0.0000   0.0000   0.0000   0.2642
  16.700   1.5194   0.08623   0.07957  -0.0667  0.0691  1.0000  -5.2007   0.0000   0.0000   0.0000   0.2639
  16.800   1.5194   0.08753   0.08096  -0.0667  0.0675  1.0000  -5.2359   0.0000   0.0000   0.0000   0.2637
  16.900   1.5188   0.08887   0.08233  -0.0667  0.0661  1.0000  -5.2700   0.0000   0.0000   0.0000   0.2635
  17.000   1.5180   0.09022   0.08368  -0.0667  0.0650  1.0000  -5.3040   0.0000   0.0000   0.0000   0.2633
  17.100   1.5170   0.09152   0.08496  -0.0667  0.0639  1.0000  -5.3381   0.0000   0.0000   0.0000   0.2630
  17.200   1.5164   0.09286   0.08635  -0.0667  0.0627  1.0000  -5.3705   0.0000   0.0000   0.0000   0.2628
  17.300   1.5159   0.09421   0.08776  -0.0668  0.0614  1.0000  -5.4035   0.0000   0.0000   0.0000   0.2627
  17.400   1.5152   0.09555   0.08911  -0.0668  0.0603  1.0000  -5.4371   0.0000   0.0000   0.0000   0.2625
  17.500   1.5145   0.09686   0.09042  -0.0669  0.0593  1.0000  -5.4716   0.0000   0.0000   0.0000   0.2623
  17.600   1.5143   0.09798   0.09150  -0.0668  0.0584  1.0000  -5.5094   0.0000   0.0000   0.0000   0.2620
  17.700   1.5135   0.09945   0.09306  -0.0669  0.0572  1.0000  -5.5381   0.0000   0.0000   0.0000   0.2619
  17.800   1.5129   0.10083   0.09449  -0.0670  0.0561  1.0000  -5.5699   0.0000   0.0000   0.0000   0.2617
  17.900   1.5125   0.10214   0.09582  -0.0672  0.0552  1.0000  -5.6043   0.0000   0.0000   0.0000   0.2616
  18.000   1.5124   0.10337   0.09704  -0.0672  0.0543  1.0000  -5.6414   0.0000   0.0000   0.0000   0.2614
  18.100   1.5134   0.10429   0.09791  -0.0671  0.0535  1.0000  -5.6854   0.0000   0.0000   0.0000   0.2610
  18.200   1.5123   0.10581   0.09952  -0.0673  0.0525  1.0000  -5.7115   0.0000   0.0000   0.0000   0.2610
  18.300   1.5117   0.10721   0.10098  -0.0675  0.0516  1.0000  -5.7417   0.0000   0.0000   0.0000   0.2609
  18.400   1.5116   0.10852   0.10232  -0.0677  0.0507  1.0000  -5.7756   0.0000   0.0000   0.0000   0.2607
  18.500   1.5120   0.10970   0.10351  -0.0678  0.0499  1.0000  -5.8139   0.0000   0.0000   0.0000   0.2605
  18.600   1.5132   0.11069   0.10446  -0.0678  0.0492  1.0000  -5.8580   0.0000   0.0000   0.0000   0.2603
  18.700   1.5154   0.11140   0.10514  -0.0676  0.0484  1.0000  -5.9077   0.0000   0.0000   0.0000   0.2598
  18.800   1.5139   0.11301   0.10685  -0.0680  0.0477  1.0000  -5.9299   0.0000   0.0000   0.0000   0.2599
  18.900   1.5133   0.11445   0.10836  -0.0683  0.0469  1.0000  -5.9586   0.0000   0.0000   0.0000   0.2598
  19.000   1.5134   0.11574   0.10969  -0.0685  0.0462  1.0000  -5.9925   0.0000   0.0000   0.0000   0.2597
  19.100   1.5139   0.11691   0.11087  -0.0687  0.0455  1.0000  -6.0308   0.0000   0.0000   0.0000   0.2596
  19.200   1.5152   0.11792   0.11188  -0.0688  0.0449  1.0000  -6.0751   0.0000   0.0000   0.0000   0.2594
  19.300   1.5184   0.11849   0.11239  -0.0687  0.0443  1.0000  -6.1323   0.0000   0.0000   0.0000   0.2589
  19.400   1.5204   0.11931   0.11321  -0.0686  0.0437  1.0000  -6.1782   0.0000   0.0000   0.0000   0.2586
  19.500   1.5185   0.12100   0.11501  -0.0692  0.0431  1.0000  -6.1970   0.0000   0.0000   0.0000   0.2587
  19.600   1.5175   0.12253   0.11662  -0.0696  0.0426  1.0000  -6.2218   0.0000   0.0000   0.0000   0.2588
  19.700   1.5171   0.12392   0.11806  -0.0700  0.0420  1.0000  -6.2516   0.0000   0.0000   0.0000   0.2588
  19.800   1.5174   0.12517   0.11934  -0.0703  0.0415  1.0000  -6.2869   0.0000   0.0000   0.0000   0.2587
  19.900   1.5185   0.12626   0.12045  -0.0705  0.0410  1.0000  -6.3282   0.0000   0.0000   0.0000   0.2586
  20.000   1.5207   0.12712   0.12131  -0.0707  0.0405  1.0000  -6.3769   0.0000   0.0000   0.0000   0.2583


