xflr5 v6.57

 Calculated polar for: QX0023

 1 1 Reynolds number fixed          Mach number fixed         

 xtrf =   1.000 (top)        1.000 (bottom)
 Mach =   0.000     Re =     0.240 e 6     Ncrit =   9.000

  alpha     CL        CD       CDp       Cm    Top Xtr Bot Xtr   Cpmin    Chinge    XCp    
 ------- -------- --------- --------- -------- ------- ------- -------- --------- ---------
  -9.800  -0.1333   0.09470   0.09117  -0.0909  0.9183  0.0580  -1.6612   0.0000   0.0000   0.0000  -0.4834
  -9.700  -0.1301   0.09370   0.09016  -0.0911  0.9161  0.0586  -1.6496   0.0000   0.0000   0.0000  -0.5032
  -9.600  -0.1277   0.09259   0.08905  -0.0916  0.9138  0.0593  -1.6478   0.0000   0.0000   0.0000  -0.5199
  -9.500  -0.1269   0.09132   0.08777  -0.0922  0.9117  0.0602  -1.6595   0.0000   0.0000   0.0000  -0.5295
  -9.400  -0.1535   0.08581   0.08230  -0.1008  0.9071  0.0623  -1.9924   0.0000   0.0000   0.0000  -0.4503
  -9.300  -0.1456   0.08536   0.08185  -0.0993  0.9056  0.0625  -1.9209   0.0000   0.0000   0.0000  -0.4774
  -9.200  -0.1379   0.08501   0.08148  -0.0979  0.9043  0.0627  -1.8523   0.0000   0.0000   0.0000  -0.5071
  -9.100  -0.1308   0.08463   0.08108  -0.0969  0.9029  0.0631  -1.7924   0.0000   0.0000   0.0000  -0.5400
  -9.000  -0.1244   0.08408   0.08054  -0.0965  0.9008  0.0636  -1.7461   0.0000   0.0000   0.0000  -0.5767
  -8.900  -0.1198   0.08334   0.07979  -0.0964  0.8989  0.0643  -1.7176   0.0000   0.0000   0.0000  -0.6069
  -8.800  -0.1170   0.08237   0.07881  -0.0967  0.8971  0.0651  -1.7060   0.0000   0.0000   0.0000  -0.6292
  -8.700  -0.1159   0.08107   0.07750  -0.0975  0.8952  0.0662  -1.7157   0.0000   0.0000   0.0000  -0.6439
  -8.000  -0.2008   0.04190   0.03749  -0.1376  0.8729  0.0512  -3.1604   0.0000   0.0000   0.0000  -0.4657
  -7.900  -0.1927   0.04142   0.03704  -0.1375  0.8715  0.0514  -3.0991   0.0000   0.0000   0.0000  -0.4949
  -7.800  -0.1845   0.04110   0.03674  -0.1375  0.8694  0.0517  -3.0359   0.0000   0.0000   0.0000  -0.5273
  -7.700  -0.1759   0.04090   0.03656  -0.1374  0.8677  0.0522  -2.9667   0.0000   0.0000   0.0000  -0.5645
  -7.600  -0.1658   0.04117   0.03686  -0.1371  0.8663  0.0532  -2.8753   0.0000   0.0000   0.0000  -0.6117
  -7.500  -0.1550   0.04217   0.03791  -0.1368  0.8651  0.0579  -2.7471   0.0000   0.0000   0.0000  -0.6690
  -7.400  -0.1455   0.04220   0.03795  -0.1366  0.8641  0.0589  -2.6699   0.0000   0.0000   0.0000  -0.7262
  -7.300  -0.1712   0.02842   0.02245  -0.1405  0.8597  0.0466  -3.3430   0.0000   0.0000   0.0000  -0.6054
  -7.200  -0.1616   0.02803   0.02204  -0.1405  0.8582  0.0472  -3.2856   0.0000   0.0000   0.0000  -0.6553
  -7.100  -0.1523   0.02744   0.02134  -0.1406  0.8570  0.0477  -3.2432   0.0000   0.0000   0.0000  -0.7100
  -7.000  -0.1430   0.02671   0.02047  -0.1406  0.8559  0.0482  -3.2098   0.0000   0.0000   0.0000  -0.7720
  -6.900  -0.1340   0.02598   0.01959  -0.1406  0.8545  0.0486  -3.1812   0.0000   0.0000   0.0000  -0.8400
  -6.800  -0.1253   0.02531   0.01877  -0.1405  0.8523  0.0490  -3.1540   0.0000   0.0000   0.0000  -0.9145
  -6.700  -0.1160   0.02462   0.01792  -0.1404  0.8507  0.0494  -3.1246   0.0000   0.0000   0.0000  -1.0070
  -6.600  -0.1062   0.02398   0.01711  -0.1404  0.8493  0.0498  -3.0922   0.0000   0.0000   0.0000  -1.1218
  -6.500  -0.0960   0.02340   0.01634  -0.1403  0.8482  0.0502  -3.0573   0.0000   0.0000   0.0000  -1.2659
  -6.400  -0.0855   0.02292   0.01566  -0.1402  0.8472  0.0507  -3.0194   0.0000   0.0000   0.0000  -1.4515
  -6.300  -0.0757   0.02232   0.01507  -0.1402  0.8458  0.0512  -2.9686   0.0000   0.0000   0.0000  -1.6697
  -6.200  -0.0661   0.02199   0.01475  -0.1402  0.8437  0.0517  -2.9128   0.0000   0.0000   0.0000  -1.9453
  -6.100  -0.0559   0.02170   0.01447  -0.1401  0.8421  0.0524  -2.8541   0.0000   0.0000   0.0000  -2.3451
  -6.000  -0.0453   0.02144   0.01419  -0.1401  0.8408  0.0532  -2.7989   0.0000   0.0000   0.0000  -2.9495
  -5.900  -0.0345   0.02115   0.01384  -0.1401  0.8396  0.0542  -2.7500   0.0000   0.0000   0.0000  -3.9496
  -5.800  -0.0234   0.02084   0.01342  -0.1400  0.8387  0.0552  -2.7061   0.0000   0.0000   0.0000  -5.9205
  -5.700  -0.0121   0.02056   0.01297  -0.1400  0.8378  0.0562  -2.6655   0.0000   0.0000   0.0000  -11.6518
  -5.600  -0.0030   0.02020   0.01266  -0.1399  0.8354  0.0570  -2.6201   0.0000   0.0000   0.0000  -47.4948
  -5.500   0.0072   0.01995   0.01243  -0.1398  0.8337  0.0578  -2.5674   0.0000   0.0000   0.0000  20.3964
  -5.400   0.0178   0.01971   0.01218  -0.1398  0.8323  0.0587  -2.5161   0.0000   0.0000   0.0000   8.3369
  -5.300   0.0288   0.01945   0.01189  -0.1397  0.8311  0.0597  -2.4666   0.0000   0.0000   0.0000   5.2550
  -5.200   0.0399   0.01918   0.01156  -0.1397  0.8301  0.0609  -2.4192   0.0000   0.0000   0.0000   3.8510
  -5.100   0.0514   0.01894   0.01122  -0.1397  0.8292  0.0620  -2.3732   0.0000   0.0000   0.0000   3.0459
  -5.000   0.0613   0.01866   0.01098  -0.1396  0.8275  0.0631  -2.3244   0.0000   0.0000   0.0000   2.5937
  -4.900   0.0711   0.01851   0.01087  -0.1395  0.8255  0.0644  -2.2714   0.0000   0.0000   0.0000   2.2656
  -4.800   0.0818   0.01835   0.01071  -0.1395  0.8239  0.0659  -2.2193   0.0000   0.0000   0.0000   2.0013
  -4.700   0.0929   0.01818   0.01048  -0.1394  0.8227  0.0677  -2.1699   0.0000   0.0000   0.0000   1.7908
  -4.600   0.1039   0.01791   0.01020  -0.1394  0.8216  0.0692  -2.1200   0.0000   0.0000   0.0000   1.6267
  -4.500   0.1150   0.01768   0.01001  -0.1394  0.8206  0.0708  -2.0672   0.0000   0.0000   0.0000   1.4929
  -4.400   0.1265   0.01749   0.00980  -0.1394  0.8198  0.0726  -2.0208   0.0000   0.0000   0.0000   1.3797
  -4.300   0.1361   0.01743   0.00971  -0.1392  0.8174  0.0745  -1.9816   0.0000   0.0000   0.0000   1.2982
  -4.200   0.1462   0.01723   0.00956  -0.1392  0.8156  0.0763  -1.9369   0.0000   0.0000   0.0000   1.2246
  -4.100   0.1570   0.01709   0.00944  -0.1392  0.8142  0.0787  -1.8894   0.0000   0.0000   0.0000   1.1569
  -4.000   0.1684   0.01696   0.00925  -0.1392  0.8130  0.0814  -1.8448   0.0000   0.0000   0.0000   1.0952
  -3.900   0.1795   0.01672   0.00907  -0.1392  0.8120  0.0840  -1.7972   0.0000   0.0000   0.0000   1.0427
  -3.800   0.1911   0.01655   0.00889  -0.1392  0.8111  0.0872  -1.7506   0.0000   0.0000   0.0000   0.9944
  -3.700   0.2018   0.01639   0.00875  -0.1392  0.8097  0.0903  -1.7062   0.0000   0.0000   0.0000   0.9543
  -3.600   0.2115   0.01634   0.00873  -0.1391  0.8074  0.0941  -1.6632   0.0000   0.0000   0.0000   0.9212
  -3.500   0.2221   0.01620   0.00862  -0.1391  0.8057  0.0983  -1.6185   0.0000   0.0000   0.0000   0.8886
  -3.400   0.2333   0.01607   0.00848  -0.1391  0.8044  0.1038  -1.5735   0.0000   0.0000   0.0000   0.8576
  -3.300   0.2446   0.01589   0.00834  -0.1391  0.8032  0.1100  -1.5271   0.0000   0.0000   0.0000   0.8293
  -3.200   0.2562   0.01571   0.00818  -0.1392  0.8022  0.1176  -1.4809   0.0000   0.0000   0.0000   0.8032
  -3.100   0.2680   0.01553   0.00802  -0.1393  0.8014  0.1276  -1.4347   0.0000   0.0000   0.0000   0.7789
  -3.000   0.2778   0.01545   0.00803  -0.1393  0.7992  0.1382  -1.3920   0.0000   0.0000   0.0000   0.7597
  -2.900   0.2880   0.01536   0.00801  -0.1392  0.7972  0.1518  -1.3484   0.0000   0.0000   0.0000   0.7412
  -2.800   0.2990   0.01522   0.00795  -0.1393  0.7956  0.1676  -1.3065   0.0000   0.0000   0.0000   0.7230
  -2.700   0.3103   0.01508   0.00786  -0.1394  0.7944  0.1852  -1.2638   0.0000   0.0000   0.0000   0.7057
  -2.600   0.3219   0.01494   0.00777  -0.1395  0.7933  0.2038  -1.2203   0.0000   0.0000   0.0000   0.6893
  -2.500   0.3337   0.01479   0.00768  -0.1396  0.7924  0.2226  -1.1762   0.0000   0.0000   0.0000   0.6739
  -2.400   0.3456   0.01466   0.00759  -0.1397  0.7915  0.2419  -1.1318   0.0000   0.0000   0.0000   0.6595
  -2.300   0.3546   0.01469   0.00771  -0.1396  0.7887  0.2594  -1.0939   0.0000   0.0000   0.0000   0.6484
  -2.200   0.3653   0.01463   0.00771  -0.1396  0.7869  0.2790  -1.0524   0.0000   0.0000   0.0000   0.6365
  -2.100   0.3765   0.01452   0.00767  -0.1396  0.7854  0.2999  -1.0102   0.0000   0.0000   0.0000   0.6250
  -2.000   0.3880   0.01439   0.00761  -0.1397  0.7842  0.3233  -0.9675   0.0000   0.0000   0.0000   0.6138
  -1.900   0.3997   0.01426   0.00754  -0.1398  0.7832  0.3485  -0.9248   0.0000   0.0000   0.0000   0.6032
  -1.800   0.4116   0.01411   0.00747  -0.1400  0.7823  0.3761  -0.8823   0.0000   0.0000   0.0000   0.5931
  -1.700   0.4213   0.01408   0.00755  -0.1398  0.7801  0.4038  -0.8471   0.0000   0.0000   0.0000   0.5847
  -1.600   0.4313   0.01403   0.00761  -0.1397  0.7779  0.4345  -0.8117   0.0000   0.0000   0.0000   0.5765
  -1.500   0.4420   0.01392   0.00762  -0.1397  0.7763  0.4683  -0.7751   0.0000   0.0000   0.0000   0.5682
  -1.400   0.4531   0.01379   0.00760  -0.1397  0.7750  0.5053  -0.7716   0.0000   0.0000   0.0000   0.5601
  -1.300   0.4644   0.01366   0.00757  -0.1396  0.7739  0.5426  -0.7791   0.0000   0.0000   0.0000   0.5522
  -1.200   0.4758   0.01352   0.00753  -0.1395  0.7729  0.5779  -0.7867   0.0000   0.0000   0.0000   0.5446
  -1.100   0.4861   0.01346   0.00757  -0.1393  0.7714  0.6109  -0.7937   0.0000   0.0000   0.0000   0.5377
  -1.000   0.4946   0.01349   0.00772  -0.1388  0.7687  0.6412  -0.7996   0.0000   0.0000   0.0000   0.5316
  -0.900   0.5047   0.01345   0.00775  -0.1385  0.7669  0.6715  -0.8067   0.0000   0.0000   0.0000   0.5251
  -0.800   0.5152   0.01339   0.00774  -0.1382  0.7655  0.6983  -0.8142   0.0000   0.0000   0.0000   0.5188
  -0.700   0.5260   0.01331   0.00771  -0.1379  0.7643  0.7228  -0.8221   0.0000   0.0000   0.0000   0.5125
  -0.600   0.5367   0.01322   0.00766  -0.1376  0.7632  0.7449  -0.8300   0.0000   0.0000   0.0000   0.5065
  -0.500   0.5473   0.01315   0.00761  -0.1372  0.7623  0.7661  -0.8378   0.0000   0.0000   0.0000   0.5006
  -0.400   0.5545   0.01324   0.00779  -0.1365  0.7591  0.7851  -0.8432   0.0000   0.0000   0.0000   0.4959
  -0.300   0.5636   0.01322   0.00781  -0.1359  0.7571  0.8042  -0.8501   0.0000   0.0000   0.0000   0.4907
  -0.200   0.5730   0.01316   0.00777  -0.1353  0.7556  0.8235  -0.8575   0.0000   0.0000   0.0000   0.4855
  -0.100   0.5826   0.01308   0.00771  -0.1347  0.7544  0.8428  -0.8652   0.0000   0.0000   0.0000   0.4804
   0.000   0.5920   0.01298   0.00763  -0.1340  0.7533  0.8619  -0.8731   0.0000   0.0000   0.0000   0.4754
   0.100   0.6008   0.01292   0.00759  -0.1332  0.7520  0.8821  -0.8806   0.0000   0.0000   0.0000   0.4706
   0.200   0.6072   0.01298   0.00771  -0.1322  0.7489  0.9041  -0.8862   0.0000   0.0000   0.0000   0.4664
   0.300   0.6179   0.01293   0.00767  -0.1319  0.7470  0.9291  -0.8948   0.0000   0.0000   0.0000   0.4620
   0.400   0.6342   0.01283   0.00757  -0.1328  0.7456  0.9579  -0.9067   0.0000   0.0000   0.0000   0.4577
   0.500   0.6543   0.01273   0.00743  -0.1346  0.7444  1.0000  -0.9207   0.0000   0.0000   0.0000   0.4538
   0.600   0.6673   0.01269   0.00733  -0.1349  0.7433  1.0000  -0.9309   0.0000   0.0000   0.0000   0.4502
   0.700   0.6792   0.01271   0.00731  -0.1351  0.7416  1.0000  -0.9403   0.0000   0.0000   0.0000   0.4468
   0.800   0.6887   0.01282   0.00742  -0.1350  0.7386  1.0000  -0.9483   0.0000   0.0000   0.0000   0.4437
   0.900   0.7003   0.01283   0.00740  -0.1352  0.7366  1.0000  -0.9580   0.0000   0.0000   0.0000   0.4405
   1.000   0.7126   0.01281   0.00734  -0.1354  0.7351  1.0000  -0.9684   0.0000   0.0000   0.0000   0.4374
   1.100   0.7252   0.01277   0.00726  -0.1356  0.7338  1.0000  -0.9792   0.0000   0.0000   0.0000   0.4342
   1.200   0.7382   0.01273   0.00717  -0.1359  0.7327  1.0000  -0.9903   0.0000   0.0000   0.0000   0.4312
   1.300   0.7476   0.01284   0.00728  -0.1357  0.7298  1.0000  -0.9989   0.0000   0.0000   0.0000   0.4285
   1.400   0.7584   0.01289   0.00731  -0.1357  0.7274  1.0000  -1.0086   0.0000   0.0000   0.0000   0.4258
   1.500   0.7703   0.01288   0.00727  -0.1359  0.7256  1.0000  -1.0192   0.0000   0.0000   0.0000   0.4231
   1.600   0.7827   0.01284   0.00720  -0.1361  0.7241  1.0000  -1.0305   0.0000   0.0000   0.0000   0.4204
   1.700   0.7955   0.01280   0.00711  -0.1363  0.7228  1.0000  -1.0422   0.0000   0.0000   0.0000   0.4177
   1.800   0.8058   0.01286   0.00717  -0.1362  0.7203  1.0000  -1.0521   0.0000   0.0000   0.0000   0.4153
   1.900   0.8160   0.01292   0.00723  -0.1361  0.7176  1.0000  -1.0623   0.0000   0.0000   0.0000   0.4129
   2.000   0.8276   0.01292   0.00720  -0.1362  0.7156  1.0000  -1.0737   0.0000   0.0000   0.0000   0.4105
   2.100   0.8399   0.01288   0.00714  -0.1364  0.7140  1.0000  -1.0856   0.0000   0.0000   0.0000   0.4082
   2.200   0.8527   0.01284   0.00705  -0.1366  0.7126  1.0000  -1.0982   0.0000   0.0000   0.0000   0.4059
   2.300   0.8630   0.01290   0.00711  -0.1365  0.7100  1.0000  -1.1089   0.0000   0.0000   0.0000   0.4037
   2.400   0.8731   0.01295   0.00717  -0.1363  0.7072  1.0000  -1.1195   0.0000   0.0000   0.0000   0.4016
   2.500   0.8847   0.01294   0.00714  -0.1364  0.7051  1.0000  -1.1314   0.0000   0.0000   0.0000   0.3995
   2.600   0.8971   0.01290   0.00707  -0.1366  0.7034  1.0000  -1.1442   0.0000   0.0000   0.0000   0.3974
   2.700   0.9099   0.01286   0.00699  -0.1368  0.7020  1.0000  -1.1576   0.0000   0.0000   0.0000   0.3954
   2.800   0.9190   0.01295   0.00711  -0.1365  0.6987  1.0000  -1.1681   0.0000   0.0000   0.0000   0.3935
   2.900   0.9297   0.01297   0.00713  -0.1364  0.6960  1.0000  -1.1803   0.0000   0.0000   0.0000   0.3915
   3.000   0.9416   0.01295   0.00708  -0.1365  0.6940  1.0000  -1.1936   0.0000   0.0000   0.0000   0.3896
   3.100   0.9542   0.01291   0.00700  -0.1367  0.6923  1.0000  -1.2074   0.0000   0.0000   0.0000   0.3878
   3.200   0.9650   0.01294   0.00702  -0.1367  0.6899  1.0000  -1.2200   0.0000   0.0000   0.0000   0.3860
   3.300   0.9747   0.01300   0.00710  -0.1365  0.6866  1.0000  -1.2319   0.0000   0.0000   0.0000   0.3842
   3.400   0.9862   0.01299   0.00708  -0.1365  0.6842  1.0000  -1.2453   0.0000   0.0000   0.0000   0.3825
   3.500   0.9985   0.01295   0.00702  -0.1366  0.6823  1.0000  -1.2601   0.0000   0.0000   0.0000   0.3808
   3.600   1.0103   0.01294   0.00699  -0.1367  0.6801  1.0000  -1.2751   0.0000   0.0000   0.0000   0.3792
   3.700   1.0193   0.01302   0.00709  -0.1364  0.6765  1.0000  -1.2878   0.0000   0.0000   0.0000   0.3775
   3.800   1.0305   0.01302   0.00708  -0.1364  0.6739  1.0000  -1.3025   0.0000   0.0000   0.0000   0.3759
   3.900   1.0427   0.01298   0.00702  -0.1365  0.6717  1.0000  -1.3184   0.0000   0.0000   0.0000   0.3744
   4.000   1.0539   0.01299   0.00702  -0.1365  0.6692  1.0000  -1.3335   0.0000   0.0000   0.0000   0.3728
   4.100   1.0632   0.01306   0.00711  -0.1362  0.6656  1.0000  -1.3470   0.0000   0.0000   0.0000   0.3713
   4.200   1.0745   0.01305   0.00710  -0.1362  0.6628  1.0000  -1.3632   0.0000   0.0000   0.0000   0.3698
   4.300   1.0868   0.01302   0.00703  -0.1363  0.6606  1.0000  -1.3809   0.0000   0.0000   0.0000   0.3684
   4.400   1.0964   0.01308   0.00711  -0.1361  0.6571  1.0000  -1.3962   0.0000   0.0000   0.0000   0.3669
   4.500   1.1066   0.01311   0.00715  -0.1359  0.6537  1.0000  -1.4120   0.0000   0.0000   0.0000   0.3655
   4.600   1.1183   0.01309   0.00711  -0.1360  0.6510  1.0000  -1.4298   0.0000   0.0000   0.0000   0.3641
   4.700   1.1295   0.01310   0.00710  -0.1360  0.6482  1.0000  -1.4473   0.0000   0.0000   0.0000   0.3627
   4.800   1.1386   0.01316   0.00719  -0.1356  0.6441  1.0000  -1.4627   0.0000   0.0000   0.0000   0.3613
   4.900   1.1497   0.01316   0.00718  -0.1356  0.6410  1.0000  -1.4808   0.0000   0.0000   0.0000   0.3600
   5.000   1.1616   0.01315   0.00714  -0.1357  0.6383  1.0000  -1.5009   0.0000   0.0000   0.0000   0.3587
   5.100   1.1700   0.01322   0.00726  -0.1352  0.6337  1.0000  -1.5175   0.0000   0.0000   0.0000   0.3574
   5.200   1.1810   0.01323   0.00725  -0.1351  0.6303  1.0000  -1.5368   0.0000   0.0000   0.0000   0.3561
   5.300   1.1922   0.01324   0.00724  -0.1351  0.6271  1.0000  -1.5572   0.0000   0.0000   0.0000   0.3548
   5.400   1.2009   0.01331   0.00734  -0.1347  0.6224  1.0000  -1.5749   0.0000   0.0000   0.0000   0.3535
   5.500   1.2118   0.01332   0.00733  -0.1346  0.6189  1.0000  -1.5955   0.0000   0.0000   0.0000   0.3523
   5.600   1.2217   0.01336   0.00737  -0.1344  0.6148  1.0000  -1.6168   0.0000   0.0000   0.0000   0.3511
   5.700   1.2312   0.01341   0.00745  -0.1341  0.6103  1.0000  -1.6377   0.0000   0.0000   0.0000   0.3499
   5.800   1.2424   0.01342   0.00742  -0.1341  0.6068  1.0000  -1.6614   0.0000   0.0000   0.0000   0.3487
   5.900   1.2509   0.01351   0.00754  -0.1336  0.6018  1.0000  -1.6838   0.0000   0.0000   0.0000   0.3475
   6.000   1.2611   0.01354   0.00756  -0.1334  0.5975  1.0000  -1.7096   0.0000   0.0000   0.0000   0.3463
   6.100   1.2707   0.01360   0.00762  -0.1331  0.5930  1.0000  -1.7351   0.0000   0.0000   0.0000   0.3452
   6.200   1.2798   0.01367   0.00769  -0.1328  0.5880  1.0000  -1.7611   0.0000   0.0000   0.0000   0.3440
   6.300   1.2901   0.01372   0.00771  -0.1326  0.5838  1.0000  -1.7920   0.0000   0.0000   0.0000   0.3429
   6.400   1.2985   0.01381   0.00783  -0.1321  0.5782  1.0000  -1.8204   0.0000   0.0000   0.0000   0.3417
   6.500   1.3089   0.01385   0.00784  -0.1320  0.5739  1.0000  -1.8523   0.0000   0.0000   0.0000   0.3406
   6.600   1.3168   0.01396   0.00798  -0.1314  0.5680  1.0000  -1.8800   0.0000   0.0000   0.0000   0.3395
   6.700   1.3267   0.01402   0.00801  -0.1312  0.5633  1.0000  -1.9128   0.0000   0.0000   0.0000   0.3384
   6.800   1.3345   0.01413   0.00814  -0.1307  0.5572  1.0000  -1.9422   0.0000   0.0000   0.0000   0.3373
   6.900   1.3441   0.01421   0.00818  -0.1304  0.5522  1.0000  -1.9748   0.0000   0.0000   0.0000   0.3362
   7.000   1.3517   0.01433   0.00833  -0.1298  0.5458  1.0000  -2.0049   0.0000   0.0000   0.0000   0.3351
   7.100   1.3607   0.01443   0.00839  -0.1294  0.5404  1.0000  -2.0382   0.0000   0.0000   0.0000   0.3340
   7.200   1.3682   0.01456   0.00853  -0.1288  0.5339  1.0000  -2.0692   0.0000   0.0000   0.0000   0.3329
   7.300   1.3764   0.01468   0.00864  -0.1283  0.5280  1.0000  -2.1014   0.0000   0.0000   0.0000   0.3318
   7.400   1.3840   0.01481   0.00877  -0.1277  0.5216  1.0000  -2.1338   0.0000   0.0000   0.0000   0.3307
   7.500   1.3914   0.01495   0.00890  -0.1271  0.5151  1.0000  -2.1665   0.0000   0.0000   0.0000   0.3296
   7.600   1.3990   0.01510   0.00901  -0.1265  0.5088  1.0000  -2.1997   0.0000   0.0000   0.0000   0.3285
   7.700   1.4056   0.01526   0.00918  -0.1258  0.5018  1.0000  -2.2312   0.0000   0.0000   0.0000   0.3274
   7.800   1.4125   0.01543   0.00932  -0.1251  0.4952  1.0000  -2.2636   0.0000   0.0000   0.0000   0.3263
   7.900   1.4189   0.01560   0.00948  -0.1243  0.4882  1.0000  -2.2949   0.0000   0.0000   0.0000   0.3252
   8.000   1.4249   0.01579   0.00966  -0.1235  0.4811  1.0000  -2.3259   0.0000   0.0000   0.0000   0.3241
   8.100   1.4309   0.01599   0.00982  -0.1226  0.4744  1.0000  -2.3570   0.0000   0.0000   0.0000   0.3230
   8.200   1.4361   0.01619   0.01002  -0.1217  0.4671  1.0000  -2.3914   0.0000   0.0000   0.0000   0.3219
   8.300   1.4406   0.01640   0.01021  -0.1206  0.4602  1.0000  -2.4292   0.0000   0.0000   0.0000   0.3207
   8.400   1.4452   0.01664   0.01041  -0.1195  0.4535  1.0000  -2.4692   0.0000   0.0000   0.0000   0.3195
   8.500   1.4495   0.01687   0.01064  -0.1185  0.4463  1.0000  -2.5087   0.0000   0.0000   0.0000   0.3184
   8.600   1.4538   0.01713   0.01088  -0.1174  0.4395  1.0000  -2.5489   0.0000   0.0000   0.0000   0.3173
   8.700   1.4580   0.01741   0.01112  -0.1164  0.4327  1.0000  -2.5886   0.0000   0.0000   0.0000   0.3162
   8.800   1.4621   0.01768   0.01139  -0.1153  0.4256  1.0000  -2.6283   0.0000   0.0000   0.0000   0.3151
   8.900   1.4660   0.01799   0.01167  -0.1143  0.4190  1.0000  -2.6679   0.0000   0.0000   0.0000   0.3140
   9.000   1.4698   0.01830   0.01196  -0.1133  0.4120  1.0000  -2.7071   0.0000   0.0000   0.0000   0.3129
   9.100   1.4737   0.01862   0.01227  -0.1123  0.4051  1.0000  -2.7465   0.0000   0.0000   0.0000   0.3119
   9.200   1.4771   0.01897   0.01260  -0.1112  0.3987  1.0000  -2.7852   0.0000   0.0000   0.0000   0.3108
   9.300   1.4808   0.01931   0.01294  -0.1102  0.3916  1.0000  -2.8245   0.0000   0.0000   0.0000   0.3098
   9.400   1.4843   0.01968   0.01329  -0.1093  0.3850  1.0000  -2.8636   0.0000   0.0000   0.0000   0.3088
   9.500   1.4875   0.02007   0.01365  -0.1083  0.3785  1.0000  -2.9020   0.0000   0.0000   0.0000   0.3078
   9.600   1.4911   0.02044   0.01402  -0.1073  0.3717  1.0000  -2.9414   0.0000   0.0000   0.0000   0.3068
   9.700   1.4941   0.02086   0.01441  -0.1064  0.3654  1.0000  -2.9797   0.0000   0.0000   0.0000   0.3058
   9.800   1.4974   0.02127   0.01482  -0.1054  0.3587  1.0000  -3.0185   0.0000   0.0000   0.0000   0.3049
   9.900   1.5006   0.02169   0.01523  -0.1045  0.3522  1.0000  -3.0574   0.0000   0.0000   0.0000   0.3039
  10.000   1.5032   0.02216   0.01567  -0.1035  0.3461  1.0000  -3.0948   0.0000   0.0000   0.0000   0.3030
  10.100   1.5065   0.02259   0.01611  -0.1027  0.3394  1.0000  -3.1342   0.0000   0.0000   0.0000   0.3021
  10.200   1.5093   0.02307   0.01656  -0.1017  0.3332  1.0000  -3.1720   0.0000   0.0000   0.0000   0.3011
  10.300   1.5120   0.02356   0.01704  -0.1008  0.3268  1.0000  -3.2099   0.0000   0.0000   0.0000   0.3002
  10.400   1.5148   0.02404   0.01753  -0.1000  0.3203  1.0000  -3.2484   0.0000   0.0000   0.0000   0.2994
  10.500   1.5169   0.02458   0.01803  -0.0990  0.3143  1.0000  -3.2847   0.0000   0.0000   0.0000   0.2985
  10.600   1.5197   0.02508   0.01854  -0.0982  0.3077  1.0000  -3.3233   0.0000   0.0000   0.0000   0.2976
  10.700   1.5221   0.02562   0.01907  -0.0973  0.3015  1.0000  -3.3607   0.0000   0.0000   0.0000   0.2967
  10.800   1.5241   0.02620   0.01962  -0.0964  0.2954  1.0000  -3.3969   0.0000   0.0000   0.0000   0.2959
  10.900   1.5267   0.02674   0.02016  -0.0956  0.2890  1.0000  -3.4351   0.0000   0.0000   0.0000   0.2951
  11.000   1.5284   0.02734   0.02074  -0.0948  0.2831  1.0000  -3.4709   0.0000   0.0000   0.0000   0.2942
  11.100   1.5305   0.02793   0.02133  -0.0939  0.2768  1.0000  -3.5076   0.0000   0.0000   0.0000   0.2934
  11.200   1.5326   0.02852   0.02192  -0.0931  0.2706  1.0000  -3.5445   0.0000   0.0000   0.0000   0.2926
  11.400   1.5359   0.02980   0.02317  -0.0915  0.2583  1.0000  -3.6159   0.0000   0.0000   0.0000   0.2910
  11.500   1.5373   0.03046   0.02382  -0.0907  0.2523  1.0000  -3.6512   0.0000   0.0000   0.0000   0.2902
  11.600   1.5383   0.03117   0.02451  -0.0898  0.2464  1.0000  -3.6849   0.0000   0.0000   0.0000   0.2894
  11.700   1.5401   0.03182   0.02517  -0.0891  0.2400  1.0000  -3.7212   0.0000   0.0000   0.0000   0.2887
  11.800   1.5409   0.03255   0.02588  -0.0882  0.2342  1.0000  -3.7547   0.0000   0.0000   0.0000   0.2879
  11.900   1.5417   0.03329   0.02660  -0.0874  0.2281  1.0000  -3.7880   0.0000   0.0000   0.0000   0.2872
  12.000   1.5430   0.03401   0.02731  -0.0867  0.2219  1.0000  -3.8228   0.0000   0.0000   0.0000   0.2865
  12.100   1.5434   0.03479   0.02808  -0.0859  0.2161  1.0000  -3.8552   0.0000   0.0000   0.0000   0.2857
  12.200   1.5440   0.03558   0.02885  -0.0851  0.2101  1.0000  -3.8878   0.0000   0.0000   0.0000   0.2850
  12.300   1.5450   0.03635   0.02962  -0.0844  0.2040  1.0000  -3.9218   0.0000   0.0000   0.0000   0.2843
  12.400   1.5451   0.03719   0.03044  -0.0837  0.1983  1.0000  -3.9530   0.0000   0.0000   0.0000   0.2836
  12.500   1.5453   0.03804   0.03127  -0.0829  0.1925  1.0000  -3.9847   0.0000   0.0000   0.0000   0.2829
  12.600   1.5460   0.03886   0.03209  -0.0822  0.1865  1.0000  -4.0177   0.0000   0.0000   0.0000   0.2823
  12.700   1.5459   0.03976   0.03297  -0.0815  0.1811  1.0000  -4.0481   0.0000   0.0000   0.0000   0.2816
  12.800   1.5459   0.04066   0.03385  -0.0809  0.1755  1.0000  -4.0791   0.0000   0.0000   0.0000   0.2809
  12.900   1.5465   0.04154   0.03473  -0.0802  0.1699  1.0000  -4.1116   0.0000   0.0000   0.0000   0.2803
  13.000   1.5461   0.04251   0.03568  -0.0796  0.1648  1.0000  -4.1409   0.0000   0.0000   0.0000   0.2797
  13.100   1.5462   0.04344   0.03660  -0.0790  0.1595  1.0000  -4.1721   0.0000   0.0000   0.0000   0.2791
  13.200   1.5465   0.04437   0.03753  -0.0784  0.1544  1.0000  -4.2035   0.0000   0.0000   0.0000   0.2785
  13.400   1.5463   0.04633   0.03947  -0.0772  0.1450  1.0000  -4.2637   0.0000   0.0000   0.0000   0.2773
  13.500   1.5459   0.04734   0.04047  -0.0767  0.1406  1.0000  -4.2930   0.0000   0.0000   0.0000   0.2768
  13.600   1.5457   0.04836   0.04148  -0.0761  0.1363  1.0000  -4.3240   0.0000   0.0000   0.0000   0.2762
  13.700   1.5458   0.04936   0.04248  -0.0756  0.1321  1.0000  -4.3566   0.0000   0.0000   0.0000   0.2757
  13.800   1.5451   0.05044   0.04355  -0.0751  0.1284  1.0000  -4.3867   0.0000   0.0000   0.0000   0.2751
  13.900   1.5453   0.05145   0.04457  -0.0746  0.1245  1.0000  -4.4197   0.0000   0.0000   0.0000   0.2746
  14.000   1.5446   0.05257   0.04568  -0.0742  0.1211  1.0000  -4.4493   0.0000   0.0000   0.0000   0.2741
  14.100   1.5447   0.05361   0.04673  -0.0737  0.1176  1.0000  -4.4817   0.0000   0.0000   0.0000   0.2736
  14.200   1.5441   0.05473   0.04785  -0.0733  0.1144  1.0000  -4.5117   0.0000   0.0000   0.0000   0.2731
  14.300   1.5437   0.05583   0.04896  -0.0729  0.1114  1.0000  -4.5423   0.0000   0.0000   0.0000   0.2726
  14.400   1.5436   0.05693   0.05007  -0.0725  0.1083  1.0000  -4.5736   0.0000   0.0000   0.0000   0.2722
  14.500   1.5420   0.05818   0.05130  -0.0721  0.1059  1.0000  -4.6000   0.0000   0.0000   0.0000   0.2717
  14.600   1.5427   0.05919   0.05235  -0.0717  0.1028  1.0000  -4.6338   0.0000   0.0000   0.0000   0.2713
  14.700   1.5414   0.06042   0.05358  -0.0713  0.1005  1.0000  -4.6611   0.0000   0.0000   0.0000   0.2708
  14.800   1.5410   0.06158   0.05474  -0.0710  0.0980  1.0000  -4.6908   0.0000   0.0000   0.0000   0.2704
  14.900   1.5408   0.06271   0.05590  -0.0707  0.0955  1.0000  -4.7217   0.0000   0.0000   0.0000   0.2700
  15.000   1.5392   0.06402   0.05719  -0.0704  0.0936  1.0000  -4.7473   0.0000   0.0000   0.0000   0.2696
  15.100   1.5392   0.06515   0.05836  -0.0701  0.0913  1.0000  -4.7782   0.0000   0.0000   0.0000   0.2692
  15.200   1.5389   0.06633   0.05956  -0.0698  0.0891  1.0000  -4.8084   0.0000   0.0000   0.0000   0.2688
  15.300   1.5373   0.06767   0.06088  -0.0696  0.0874  1.0000  -4.8338   0.0000   0.0000   0.0000   0.2685
  15.400   1.5369   0.06887   0.06211  -0.0693  0.0854  1.0000  -4.8630   0.0000   0.0000   0.0000   0.2681
  15.500   1.5369   0.07004   0.06331  -0.0691  0.0833  1.0000  -4.8938   0.0000   0.0000   0.0000   0.2677
  15.600   1.5356   0.07137   0.06464  -0.0689  0.0817  1.0000  -4.9200   0.0000   0.0000   0.0000   0.2674
  15.700   1.5340   0.07272   0.06599  -0.0687  0.0803  1.0000  -4.9447   0.0000   0.0000   0.0000   0.2671
  15.800   1.5345   0.07387   0.06719  -0.0685  0.0783  1.0000  -4.9763   0.0000   0.0000   0.0000   0.2668
  15.900   1.5337   0.07515   0.06849  -0.0684  0.0767  1.0000  -5.0041   0.0000   0.0000   0.0000   0.2665
  16.000   1.5319   0.07654   0.06988  -0.0682  0.0754  1.0000  -5.0281   0.0000   0.0000   0.0000   0.2662
  16.100   1.5311   0.07783   0.07119  -0.0681  0.0739  1.0000  -5.0546   0.0000   0.0000   0.0000   0.2659
  16.200   1.5310   0.07906   0.07247  -0.0680  0.0722  1.0000  -5.0838   0.0000   0.0000   0.0000   0.2656
  16.300   1.5301   0.08039   0.07382  -0.0679  0.0708  1.0000  -5.1105   0.0000   0.0000   0.0000   0.2653
  16.400   1.5283   0.08182   0.07523  -0.0678  0.0697  1.0000  -5.1404   0.0000   0.0000   0.0000   0.2651
  16.500   1.5275   0.08314   0.07658  -0.0677  0.0683  1.0000  -5.1741   0.0000   0.0000   0.0000   0.2648
  16.600   1.5273   0.08443   0.07792  -0.0677  0.0668  1.0000  -5.2101   0.0000   0.0000   0.0000   0.2646
  16.700   1.5265   0.08578   0.07929  -0.0677  0.0655  1.0000  -5.2444   0.0000   0.0000   0.0000   0.2643
  16.800   1.5250   0.08719   0.08070  -0.0677  0.0644  1.0000  -5.2762   0.0000   0.0000   0.0000   0.2641
  16.900   1.5235   0.08859   0.08209  -0.0676  0.0634  1.0000  -5.3068   0.0000   0.0000   0.0000   0.2639
  17.000   1.5233   0.08989   0.08347  -0.0677  0.0620  1.0000  -5.3420   0.0000   0.0000   0.0000   0.2637
  17.100   1.5227   0.09126   0.08487  -0.0677  0.0608  1.0000  -5.3757   0.0000   0.0000   0.0000   0.2635
  17.200   1.5217   0.09265   0.08627  -0.0677  0.0598  1.0000  -5.4087   0.0000   0.0000   0.0000   0.2633
  17.300   1.5203   0.09404   0.08765  -0.0678  0.0589  1.0000  -5.4403   0.0000   0.0000   0.0000   0.2632
  17.400   1.5193   0.09540   0.08903  -0.0678  0.0578  1.0000  -5.4720   0.0000   0.0000   0.0000   0.2630
  17.500   1.5187   0.09677   0.09047  -0.0679  0.0567  1.0000  -5.5043   0.0000   0.0000   0.0000   0.2628
  17.600   1.5179   0.09816   0.09189  -0.0680  0.0556  1.0000  -5.5367   0.0000   0.0000   0.0000   0.2626
  17.700   1.5170   0.09954   0.09328  -0.0681  0.0547  1.0000  -5.5696   0.0000   0.0000   0.0000   0.2625
  17.800   1.5161   0.10086   0.09459  -0.0681  0.0539  1.0000  -5.6034   0.0000   0.0000   0.0000   0.2623
  17.900   1.5155   0.10216   0.09590  -0.0682  0.0530  1.0000  -5.6362   0.0000   0.0000   0.0000   0.2621
  18.000   1.5147   0.10360   0.09742  -0.0684  0.0520  1.0000  -5.6660   0.0000   0.0000   0.0000   0.2620
  18.100   1.5141   0.10499   0.09884  -0.0685  0.0510  1.0000  -5.6980   0.0000   0.0000   0.0000   0.2619
  18.200   1.5136   0.10634   0.10021  -0.0687  0.0502  1.0000  -5.7316   0.0000   0.0000   0.0000   0.2618
  18.300   1.5133   0.10762   0.10149  -0.0688  0.0494  1.0000  -5.7675   0.0000   0.0000   0.0000   0.2616
  18.400   1.5139   0.10866   0.10248  -0.0688  0.0487  1.0000  -5.8089   0.0000   0.0000   0.0000   0.2614
  18.500   1.5132   0.11006   0.10395  -0.0690  0.0479  1.0000  -5.8380   0.0000   0.0000   0.0000   0.2613
  18.600   1.5125   0.11151   0.10547  -0.0693  0.0471  1.0000  -5.8669   0.0000   0.0000   0.0000   0.2612
  18.700   1.5121   0.11286   0.10686  -0.0695  0.0463  1.0000  -5.8995   0.0000   0.0000   0.0000   0.2611
  18.800   1.5121   0.11416   0.10817  -0.0697  0.0456  1.0000  -5.9347   0.0000   0.0000   0.0000   0.2610
  18.900   1.5125   0.11536   0.10937  -0.0699  0.0450  1.0000  -5.9737   0.0000   0.0000   0.0000   0.2609
  19.000   1.5138   0.11631   0.11029  -0.0699  0.0443  1.0000  -6.0192   0.0000   0.0000   0.0000   0.2606
  19.100   1.5150   0.11727   0.11125  -0.0699  0.0437  1.0000  -6.0615   0.0000   0.0000   0.0000   0.2603
  19.200   1.5137   0.11886   0.11293  -0.0704  0.0431  1.0000  -6.0853   0.0000   0.0000   0.0000   0.2604
  19.300   1.5130   0.12031   0.11445  -0.0707  0.0425  1.0000  -6.1135   0.0000   0.0000   0.0000   0.2604
  19.400   1.5128   0.12165   0.11583  -0.0711  0.0419  1.0000  -6.1461   0.0000   0.0000   0.0000   0.2604
  19.500   1.5131   0.12290   0.11710  -0.0713  0.0413  1.0000  -6.1825   0.0000   0.0000   0.0000   0.2603
  19.600   1.5139   0.12403   0.11824  -0.0716  0.0408  1.0000  -6.2231   0.0000   0.0000   0.0000   0.2602
  19.700   1.5156   0.12496   0.11915  -0.0717  0.0403  1.0000  -6.2707   0.0000   0.0000   0.0000   0.2599
  19.800   1.5195   0.12535   0.11948  -0.0715  0.0397  1.0000  -6.3326   0.0000   0.0000   0.0000   0.2594
  19.900   1.5206   0.12641   0.12057  -0.0717  0.0393  1.0000  -6.3711   0.0000   0.0000   0.0000   0.2592
  20.000   1.5193   0.12800   0.12225  -0.0722  0.0389  1.0000  -6.3930   0.0000   0.0000   0.0000   0.2593


