xflr5 v6.57

 Calculated polar for: QX0023

 1 1 Reynolds number fixed          Mach number fixed         

 xtrf =   1.000 (top)        1.000 (bottom)
 Mach =   0.000     Re =     0.720 e 6     Ncrit =   9.000

  alpha     CL        CD       CDp       Cm    Top Xtr Bot Xtr   Cpmin    Chinge    XCp    
 ------- -------- --------- --------- -------- ------- ------- -------- --------- ---------
 -10.000  -0.4818   0.02149   0.01656  -0.1309  0.8268  0.0223  -6.2165   0.0000   0.0000   0.0000  -0.0411
  -9.900  -0.4723   0.02106   0.01606  -0.1310  0.8254  0.0225  -6.1397   0.0000   0.0000   0.0000  -0.0468
  -9.800  -0.4627   0.02067   0.01559  -0.1311  0.8240  0.0226  -6.0610   0.0000   0.0000   0.0000  -0.0529
  -9.700  -0.4528   0.02033   0.01517  -0.1311  0.8227  0.0228  -5.9802   0.0000   0.0000   0.0000  -0.0593
  -9.600  -0.4428   0.02003   0.01479  -0.1312  0.8215  0.0229  -5.8973   0.0000   0.0000   0.0000  -0.0662
  -9.500  -0.4325   0.01978   0.01446  -0.1313  0.8204  0.0230  -5.8121   0.0000   0.0000   0.0000  -0.0735
  -9.400  -0.4244   0.01891   0.01351  -0.1314  0.8192  0.0232  -5.7579   0.0000   0.0000   0.0000  -0.0796
  -9.300  -0.4151   0.01837   0.01294  -0.1314  0.8177  0.0235  -5.6828   0.0000   0.0000   0.0000  -0.0868
  -9.200  -0.4051   0.01802   0.01257  -0.1315  0.8163  0.0237  -5.5972   0.0000   0.0000   0.0000  -0.0950
  -9.100  -0.3948   0.01775   0.01229  -0.1316  0.8150  0.0238  -5.5080   0.0000   0.0000   0.0000  -0.1039
  -9.000  -0.3843   0.01752   0.01204  -0.1317  0.8137  0.0240  -5.4175   0.0000   0.0000   0.0000  -0.1133
  -8.900  -0.3737   0.01732   0.01181  -0.1317  0.8126  0.0242  -5.3260   0.0000   0.0000   0.0000  -0.1235
  -8.800  -0.3630   0.01713   0.01160  -0.1318  0.8115  0.0245  -5.2348   0.0000   0.0000   0.0000  -0.1343
  -8.700  -0.3523   0.01696   0.01138  -0.1319  0.8105  0.0247  -5.1446   0.0000   0.0000   0.0000  -0.1458
  -8.600  -0.3416   0.01676   0.01116  -0.1319  0.8091  0.0250  -5.0558   0.0000   0.0000   0.0000  -0.1581
  -8.500  -0.3308   0.01655   0.01093  -0.1320  0.8077  0.0253  -4.9688   0.0000   0.0000   0.0000  -0.1712
  -8.400  -0.3201   0.01634   0.01068  -0.1321  0.8064  0.0255  -4.8831   0.0000   0.0000   0.0000  -0.1852
  -8.300  -0.3093   0.01613   0.01043  -0.1321  0.8051  0.0258  -4.7990   0.0000   0.0000   0.0000  -0.2001
  -8.200  -0.2985   0.01590   0.01016  -0.1322  0.8039  0.0261  -4.7163   0.0000   0.0000   0.0000  -0.2162
  -8.100  -0.2877   0.01569   0.00989  -0.1322  0.8028  0.0263  -4.6379   0.0000   0.0000   0.0000  -0.2334
  -8.000  -0.2768   0.01550   0.00964  -0.1323  0.8018  0.0265  -4.5627   0.0000   0.0000   0.0000  -0.2522
  -7.900  -0.2658   0.01533   0.00942  -0.1323  0.8008  0.0267  -4.4867   0.0000   0.0000   0.0000  -0.2728
  -7.800  -0.2547   0.01518   0.00924  -0.1324  0.7994  0.0268  -4.4097   0.0000   0.0000   0.0000  -0.2954
  -7.700  -0.2449   0.01462   0.00866  -0.1325  0.7980  0.0272  -4.3509   0.0000   0.0000   0.0000  -0.3168
  -7.600  -0.2344   0.01433   0.00836  -0.1325  0.7967  0.0276  -4.2778   0.0000   0.0000   0.0000  -0.3421
  -7.500  -0.2235   0.01412   0.00815  -0.1326  0.7955  0.0279  -4.2001   0.0000   0.0000   0.0000  -0.3707
  -7.400  -0.2125   0.01396   0.00797  -0.1327  0.7943  0.0281  -4.1216   0.0000   0.0000   0.0000  -0.4027
  -7.300  -0.2014   0.01381   0.00780  -0.1327  0.7933  0.0285  -4.0435   0.0000   0.0000   0.0000  -0.4384
  -7.200  -0.1903   0.01366   0.00763  -0.1328  0.7923  0.0288  -3.9662   0.0000   0.0000   0.0000  -0.4784
  -7.100  -0.1792   0.01352   0.00746  -0.1329  0.7912  0.0291  -3.8901   0.0000   0.0000   0.0000  -0.5235
  -7.000  -0.1680   0.01337   0.00729  -0.1329  0.7899  0.0295  -3.8151   0.0000   0.0000   0.0000  -0.5745
  -6.900  -0.1568   0.01322   0.00712  -0.1330  0.7885  0.0299  -3.7409   0.0000   0.0000   0.0000  -0.6331
  -6.800  -0.1456   0.01309   0.00697  -0.1331  0.7873  0.0303  -3.6665   0.0000   0.0000   0.0000  -0.7010
  -6.700  -0.1343   0.01298   0.00682  -0.1331  0.7860  0.0307  -3.5918   0.0000   0.0000   0.0000  -0.7810
  -6.600  -0.1228   0.01290   0.00671  -0.1332  0.7849  0.0310  -3.5209   0.0000   0.0000   0.0000  -0.8766
  -6.500  -0.1123   0.01255   0.00635  -0.1332  0.7838  0.0316  -3.4632   0.0000   0.0000   0.0000  -0.9821
  -6.400  -0.1012   0.01237   0.00616  -0.1333  0.7828  0.0321  -3.3962   0.0000   0.0000   0.0000  -1.1164
  -6.300  -0.0900   0.01225   0.00603  -0.1334  0.7818  0.0325  -3.3274   0.0000   0.0000   0.0000  -1.2873
  -6.200  -0.0787   0.01213   0.00591  -0.1335  0.7804  0.0330  -3.2598   0.0000   0.0000   0.0000  -1.5070
  -6.100  -0.0674   0.01201   0.00579  -0.1336  0.7791  0.0335  -3.1933   0.0000   0.0000   0.0000  -1.8014
  -6.000  -0.0561   0.01189   0.00566  -0.1336  0.7778  0.0341  -3.1278   0.0000   0.0000   0.0000  -2.2158
  -5.900  -0.0447   0.01179   0.00553  -0.1337  0.7765  0.0346  -3.0631   0.0000   0.0000   0.0000  -2.8431
  -5.800  -0.0332   0.01169   0.00540  -0.1338  0.7754  0.0351  -2.9985   0.0000   0.0000   0.0000  -3.9070
  -5.700  -0.0218   0.01160   0.00528  -0.1338  0.7743  0.0356  -2.9342   0.0000   0.0000   0.0000  -6.0908
  -5.600  -0.0108   0.01135   0.00502  -0.1339  0.7732  0.0363  -2.8747   0.0000   0.0000   0.0000  -12.4920
  -5.500   0.0005   0.01123   0.00489  -0.1340  0.7723  0.0370  -2.8094   0.0000   0.0000   0.0000  269.6817
  -5.400   0.0119   0.01113   0.00480  -0.1341  0.7710  0.0377  -2.7443   0.0000   0.0000   0.0000  11.8795
  -5.300   0.0233   0.01103   0.00470  -0.1342  0.7696  0.0384  -2.6801   0.0000   0.0000   0.0000   6.1814
  -5.200   0.0348   0.01095   0.00461  -0.1343  0.7683  0.0392  -2.6167   0.0000   0.0000   0.0000   4.2255
  -5.100   0.0463   0.01088   0.00451  -0.1344  0.7670  0.0399  -2.5535   0.0000   0.0000   0.0000   3.2353
  -5.000   0.0576   0.01074   0.00437  -0.1344  0.7658  0.0407  -2.4926   0.0000   0.0000   0.0000   2.6465
  -4.900   0.0690   0.01060   0.00423  -0.1345  0.7647  0.0417  -2.4303   0.0000   0.0000   0.0000   2.2527
  -4.800   0.0805   0.01053   0.00414  -0.1346  0.7637  0.0427  -2.3668   0.0000   0.0000   0.0000   1.9663
  -4.700   0.0921   0.01046   0.00406  -0.1347  0.7627  0.0437  -2.3058   0.0000   0.0000   0.0000   1.7507
  -4.600   0.1036   0.01040   0.00399  -0.1348  0.7614  0.0447  -2.2499   0.0000   0.0000   0.0000   1.5838
  -4.500   0.1150   0.01030   0.00388  -0.1349  0.7600  0.0457  -2.1957   0.0000   0.0000   0.0000   1.4512
  -4.400   0.1264   0.01017   0.00377  -0.1350  0.7586  0.0470  -2.1410   0.0000   0.0000   0.0000   1.3432
  -4.300   0.1379   0.01009   0.00369  -0.1351  0.7573  0.0481  -2.0853   0.0000   0.0000   0.0000   1.2520
  -4.200   0.1495   0.01002   0.00361  -0.1352  0.7561  0.0494  -2.0304   0.0000   0.0000   0.0000   1.1745
  -4.100   0.1611   0.00997   0.00353  -0.1353  0.7549  0.0506  -1.9759   0.0000   0.0000   0.0000   1.1078
  -4.000   0.1726   0.00984   0.00342  -0.1354  0.7538  0.0524  -1.9226   0.0000   0.0000   0.0000   1.0509
  -3.900   0.1842   0.00978   0.00334  -0.1355  0.7528  0.0541  -1.8680   0.0000   0.0000   0.0000   1.0006
  -3.800   0.1957   0.00973   0.00329  -0.1355  0.7515  0.0560  -1.8144   0.0000   0.0000   0.0000   0.9562
  -3.700   0.2072   0.00962   0.00321  -0.1356  0.7500  0.0582  -1.7618   0.0000   0.0000   0.0000   0.9173
  -3.600   0.2187   0.00955   0.00314  -0.1357  0.7486  0.0607  -1.7089   0.0000   0.0000   0.0000   0.8822
  -3.500   0.2302   0.00947   0.00307  -0.1358  0.7472  0.0635  -1.6569   0.0000   0.0000   0.0000   0.8505
  -3.400   0.2418   0.00939   0.00300  -0.1359  0.7459  0.0668  -1.6048   0.0000   0.0000   0.0000   0.8219
  -3.300   0.2534   0.00932   0.00293  -0.1360  0.7447  0.0706  -1.5533   0.0000   0.0000   0.0000   0.7958
  -3.200   0.2650   0.00925   0.00286  -0.1361  0.7436  0.0755  -1.5020   0.0000   0.0000   0.0000   0.7720
  -3.100   0.2766   0.00918   0.00280  -0.1362  0.7425  0.0814  -1.4509   0.0000   0.0000   0.0000   0.7501
  -3.000   0.2880   0.00909   0.00276  -0.1363  0.7410  0.0885  -1.4006   0.0000   0.0000   0.0000   0.7303
  -2.900   0.2995   0.00900   0.00271  -0.1364  0.7395  0.0969  -1.3507   0.0000   0.0000   0.0000   0.7120
  -2.800   0.3110   0.00892   0.00267  -0.1366  0.7380  0.1064  -1.3022   0.0000   0.0000   0.0000   0.6950
  -2.700   0.3225   0.00884   0.00262  -0.1367  0.7366  0.1172  -1.2565   0.0000   0.0000   0.0000   0.6792
  -2.600   0.3341   0.00876   0.00258  -0.1368  0.7352  0.1285  -1.2111   0.0000   0.0000   0.0000   0.6644
  -2.500   0.3456   0.00869   0.00254  -0.1369  0.7340  0.1405  -1.1658   0.0000   0.0000   0.0000   0.6506
  -2.400   0.3572   0.00863   0.00250  -0.1370  0.7328  0.1526  -1.1209   0.0000   0.0000   0.0000   0.6377
  -2.300   0.3688   0.00857   0.00248  -0.1371  0.7314  0.1643  -1.0764   0.0000   0.0000   0.0000   0.6256
  -2.200   0.3802   0.00851   0.00246  -0.1372  0.7297  0.1759  -1.0325   0.0000   0.0000   0.0000   0.6143
  -2.100   0.3917   0.00845   0.00244  -0.1373  0.7281  0.1875  -0.9889   0.0000   0.0000   0.0000   0.6036
  -2.000   0.4033   0.00839   0.00241  -0.1374  0.7266  0.1993  -0.9456   0.0000   0.0000   0.0000   0.5936
  -1.900   0.4149   0.00833   0.00238  -0.1376  0.7252  0.2118  -0.9026   0.0000   0.0000   0.0000   0.5840
  -1.800   0.4264   0.00827   0.00236  -0.1377  0.7239  0.2252  -0.8601   0.0000   0.0000   0.0000   0.5750
  -1.700   0.4380   0.00822   0.00233  -0.1378  0.7226  0.2398  -0.8208   0.0000   0.0000   0.0000   0.5665
  -1.600   0.4496   0.00817   0.00232  -0.1379  0.7211  0.2543  -0.7825   0.0000   0.0000   0.0000   0.5584
  -1.400   0.4725   0.00805   0.00230  -0.1381  0.7177  0.2837  -0.7954   0.0000   0.0000   0.0000   0.5434
  -1.300   0.4840   0.00798   0.00228  -0.1382  0.7161  0.3016  -0.8027   0.0000   0.0000   0.0000   0.5365
  -1.200   0.4955   0.00792   0.00227  -0.1383  0.7146  0.3214  -0.8100   0.0000   0.0000   0.0000   0.5299
  -1.100   0.5071   0.00786   0.00225  -0.1385  0.7132  0.3421  -0.8174   0.0000   0.0000   0.0000   0.5235
  -0.900   0.5300   0.00773   0.00225  -0.1387  0.7102  0.3883  -0.8325   0.0000   0.0000   0.0000   0.5117
  -0.800   0.5414   0.00765   0.00225  -0.1388  0.7084  0.4151  -0.8403   0.0000   0.0000   0.0000   0.5062
  -0.700   0.5528   0.00757   0.00225  -0.1389  0.7066  0.4426  -0.8482   0.0000   0.0000   0.0000   0.5009
  -0.600   0.5642   0.00749   0.00225  -0.1390  0.7050  0.4721  -0.8563   0.0000   0.0000   0.0000   0.4958
  -0.500   0.5756   0.00741   0.00225  -0.1391  0.7034  0.5033  -0.8644   0.0000   0.0000   0.0000   0.4909
  -0.400   0.5871   0.00736   0.00225  -0.1392  0.7020  0.5338  -0.8726   0.0000   0.0000   0.0000   0.4862
  -0.300   0.5984   0.00730   0.00227  -0.1392  0.7003  0.5605  -0.8806   0.0000   0.0000   0.0000   0.4817
  -0.200   0.6096   0.00724   0.00229  -0.1393  0.6984  0.5856  -0.8888   0.0000   0.0000   0.0000   0.4773
  -0.100   0.6209   0.00718   0.00230  -0.1393  0.6965  0.6097  -0.8971   0.0000   0.0000   0.0000   0.4730
   0.000   0.6322   0.00713   0.00232  -0.1393  0.6948  0.6347  -0.9055   0.0000   0.0000   0.0000   0.4689
   0.100   0.6434   0.00710   0.00233  -0.1393  0.6932  0.6597  -0.9144   0.0000   0.0000   0.0000   0.4649
   0.200   0.6548   0.00708   0.00234  -0.1394  0.6917  0.6797  -0.9232   0.0000   0.0000   0.0000   0.4610
   0.300   0.6660   0.00706   0.00237  -0.1394  0.6898  0.6975  -0.9321   0.0000   0.0000   0.0000   0.4573
   0.400   0.6771   0.00703   0.00239  -0.1393  0.6877  0.7135  -0.9411   0.0000   0.0000   0.0000   0.4537
   0.500   0.6883   0.00701   0.00240  -0.1393  0.6857  0.7283  -0.9501   0.0000   0.0000   0.0000   0.4501
   0.600   0.6995   0.00699   0.00241  -0.1393  0.6838  0.7426  -0.9591   0.0000   0.0000   0.0000   0.4467
   0.700   0.7106   0.00698   0.00242  -0.1393  0.6822  0.7569  -0.9683   0.0000   0.0000   0.0000   0.4434
   0.800   0.7217   0.00697   0.00243  -0.1392  0.6805  0.7707  -0.9775   0.0000   0.0000   0.0000   0.4402
   0.900   0.7327   0.00695   0.00246  -0.1392  0.6783  0.7838  -0.9870   0.0000   0.0000   0.0000   0.4371
   1.000   0.7436   0.00693   0.00247  -0.1391  0.6761  0.7966  -0.9967   0.0000   0.0000   0.0000   0.4341
   1.100   0.7544   0.00691   0.00249  -0.1390  0.6741  0.8098  -1.0063   0.0000   0.0000   0.0000   0.4311
   1.200   0.7652   0.00690   0.00250  -0.1389  0.6722  0.8239  -1.0162   0.0000   0.0000   0.0000   0.4282
   1.300   0.7758   0.00690   0.00251  -0.1387  0.6705  0.8378  -1.0260   0.0000   0.0000   0.0000   0.4254
   1.400   0.7863   0.00688   0.00253  -0.1385  0.6682  0.8520  -1.0357   0.0000   0.0000   0.0000   0.4226
   1.500   0.7964   0.00685   0.00255  -0.1382  0.6658  0.8666  -1.0453   0.0000   0.0000   0.0000   0.4199
   1.600   0.8062   0.00683   0.00257  -0.1378  0.6637  0.8834  -1.0549   0.0000   0.0000   0.0000   0.4172
   1.700   0.8155   0.00680   0.00257  -0.1374  0.6617  0.9024  -1.0643   0.0000   0.0000   0.0000   0.4145
   1.800   0.8246   0.00679   0.00257  -0.1368  0.6598  0.9244  -1.0740   0.0000   0.0000   0.0000   0.4118
   1.900   0.8353   0.00674   0.00257  -0.1366  0.6574  0.9523  -1.0848   0.0000   0.0000   0.0000   0.4093
   2.000   0.8521   0.00671   0.00255  -0.1378  0.6548  1.0000  -1.0995   0.0000   0.0000   0.0000   0.4074
   2.100   0.8635   0.00673   0.00256  -0.1379  0.6525  1.0000  -1.1108   0.0000   0.0000   0.0000   0.4053
   2.200   0.8749   0.00677   0.00257  -0.1380  0.6503  1.0000  -1.1225   0.0000   0.0000   0.0000   0.4031
   2.300   0.8863   0.00680   0.00259  -0.1381  0.6480  1.0000  -1.1341   0.0000   0.0000   0.0000   0.4011
   2.400   0.8977   0.00682   0.00261  -0.1381  0.6452  1.0000  -1.1457   0.0000   0.0000   0.0000   0.3991
   2.500   0.9091   0.00685   0.00263  -0.1382  0.6426  1.0000  -1.1575   0.0000   0.0000   0.0000   0.3971
   2.600   0.9204   0.00689   0.00265  -0.1383  0.6402  1.0000  -1.1695   0.0000   0.0000   0.0000   0.3951
   2.700   0.9316   0.00693   0.00266  -0.1383  0.6379  1.0000  -1.1818   0.0000   0.0000   0.0000   0.3933
   2.800   0.9430   0.00696   0.00269  -0.1384  0.6350  1.0000  -1.1943   0.0000   0.0000   0.0000   0.3914
   2.900   0.9542   0.00699   0.00272  -0.1384  0.6322  1.0000  -1.2071   0.0000   0.0000   0.0000   0.3896
   3.000   0.9654   0.00703   0.00274  -0.1385  0.6296  1.0000  -1.2197   0.0000   0.0000   0.0000   0.3878
   3.100   0.9765   0.00707   0.00276  -0.1385  0.6270  1.0000  -1.2325   0.0000   0.0000   0.0000   0.3861
   3.200   0.9877   0.00710   0.00279  -0.1385  0.6238  1.0000  -1.2455   0.0000   0.0000   0.0000   0.3844
   3.300   0.9988   0.00714   0.00283  -0.1386  0.6207  1.0000  -1.2586   0.0000   0.0000   0.0000   0.3827
   3.400   1.0098   0.00719   0.00285  -0.1386  0.6179  1.0000  -1.2718   0.0000   0.0000   0.0000   0.3811
   3.500   1.0209   0.00723   0.00288  -0.1386  0.6148  1.0000  -1.2862   0.0000   0.0000   0.0000   0.3795
   3.600   1.0320   0.00727   0.00292  -0.1386  0.6114  1.0000  -1.3006   0.0000   0.0000   0.0000   0.3779
   3.700   1.0429   0.00732   0.00295  -0.1386  0.6083  1.0000  -1.3149   0.0000   0.0000   0.0000   0.3764
   3.800   1.0538   0.00737   0.00299  -0.1386  0.6051  1.0000  -1.3297   0.0000   0.0000   0.0000   0.3749
   3.900   1.0648   0.00741   0.00302  -0.1386  0.6013  1.0000  -1.3446   0.0000   0.0000   0.0000   0.3734
   4.000   1.0755   0.00746   0.00307  -0.1385  0.5977  1.0000  -1.3594   0.0000   0.0000   0.0000   0.3719
   4.100   1.0863   0.00752   0.00311  -0.1385  0.5941  1.0000  -1.3749   0.0000   0.0000   0.0000   0.3705
   4.200   1.0972   0.00756   0.00315  -0.1385  0.5900  1.0000  -1.3913   0.0000   0.0000   0.0000   0.3691
   4.300   1.1077   0.00762   0.00319  -0.1384  0.5862  1.0000  -1.4075   0.0000   0.0000   0.0000   0.3677
   4.400   1.1184   0.00768   0.00324  -0.1384  0.5823  1.0000  -1.4238   0.0000   0.0000   0.0000   0.3663
   4.500   1.1291   0.00774   0.00329  -0.1383  0.5781  1.0000  -1.4407   0.0000   0.0000   0.0000   0.3650
   4.700   1.1502   0.00786   0.00339  -0.1382  0.5696  1.0000  -1.4744   0.0000   0.0000   0.0000   0.3623
   4.800   1.1605   0.00794   0.00345  -0.1381  0.5650  1.0000  -1.4913   0.0000   0.0000   0.0000   0.3610
   4.900   1.1709   0.00801   0.00350  -0.1379  0.5605  1.0000  -1.5099   0.0000   0.0000   0.0000   0.3597
   5.000   1.1812   0.00808   0.00356  -0.1378  0.5555  1.0000  -1.5285   0.0000   0.0000   0.0000   0.3585
   5.100   1.1913   0.00816   0.00362  -0.1377  0.5508  1.0000  -1.5469   0.0000   0.0000   0.0000   0.3572
   5.200   1.2016   0.00823   0.00369  -0.1376  0.5456  1.0000  -1.5663   0.0000   0.0000   0.0000   0.3560
   5.300   1.2114   0.00833   0.00376  -0.1374  0.5407  1.0000  -1.5852   0.0000   0.0000   0.0000   0.3548
   5.400   1.2217   0.00841   0.00382  -0.1373  0.5352  1.0000  -1.6046   0.0000   0.0000   0.0000   0.3536
   5.500   1.2313   0.00851   0.00390  -0.1370  0.5299  1.0000  -1.6256   0.0000   0.0000   0.0000   0.3524
   5.600   1.2413   0.00859   0.00398  -0.1369  0.5238  1.0000  -1.6472   0.0000   0.0000   0.0000   0.3512
   5.700   1.2508   0.00871   0.00406  -0.1366  0.5180  1.0000  -1.6686   0.0000   0.0000   0.0000   0.3500
   5.800   1.2605   0.00881   0.00414  -0.1364  0.5116  1.0000  -1.6925   0.0000   0.0000   0.0000   0.3489
   5.900   1.2699   0.00892   0.00423  -0.1362  0.5054  1.0000  -1.7172   0.0000   0.0000   0.0000   0.3478
   6.000   1.2792   0.00904   0.00433  -0.1359  0.4990  1.0000  -1.7421   0.0000   0.0000   0.0000   0.3466
   6.100   1.2886   0.00915   0.00442  -0.1356  0.4925  1.0000  -1.7690   0.0000   0.0000   0.0000   0.3455
   6.200   1.2973   0.00929   0.00453  -0.1353  0.4859  1.0000  -1.7979   0.0000   0.0000   0.0000   0.3444
   6.300   1.3065   0.00941   0.00463  -0.1350  0.4786  1.0000  -1.8275   0.0000   0.0000   0.0000   0.3433
   6.400   1.3152   0.00955   0.00474  -0.1346  0.4716  1.0000  -1.8567   0.0000   0.0000   0.0000   0.3421
   6.600   1.3323   0.00985   0.00498  -0.1338  0.4568  1.0000  -1.9168   0.0000   0.0000   0.0000   0.3399
   6.700   1.3406   0.01001   0.00510  -0.1334  0.4494  1.0000  -1.9471   0.0000   0.0000   0.0000   0.3389
   6.800   1.3484   0.01019   0.00524  -0.1328  0.4418  1.0000  -1.9775   0.0000   0.0000   0.0000   0.3377
   6.900   1.3565   0.01035   0.00537  -0.1324  0.4339  1.0000  -2.0093   0.0000   0.0000   0.0000   0.3367
   7.000   1.3644   0.01051   0.00551  -0.1319  0.4262  1.0000  -2.0409   0.0000   0.0000   0.0000   0.3356
   7.100   1.3719   0.01070   0.00566  -0.1313  0.4188  1.0000  -2.0733   0.0000   0.0000   0.0000   0.3345
   7.200   1.3794   0.01088   0.00581  -0.1308  0.4112  1.0000  -2.1060   0.0000   0.0000   0.0000   0.3334
   7.300   1.3870   0.01105   0.00596  -0.1302  0.4038  1.0000  -2.1390   0.0000   0.0000   0.0000   0.3324
   7.400   1.3940   0.01125   0.00612  -0.1296  0.3964  1.0000  -2.1711   0.0000   0.0000   0.0000   0.3313
   7.500   1.4003   0.01145   0.00629  -0.1288  0.3890  1.0000  -2.2019   0.0000   0.0000   0.0000   0.3302
   7.600   1.4067   0.01163   0.00644  -0.1280  0.3816  1.0000  -2.2332   0.0000   0.0000   0.0000   0.3290
   7.700   1.4127   0.01184   0.00662  -0.1272  0.3746  1.0000  -2.2639   0.0000   0.0000   0.0000   0.3279
   7.800   1.4186   0.01206   0.00681  -0.1264  0.3677  1.0000  -2.2946   0.0000   0.0000   0.0000   0.3268
   7.900   1.4253   0.01225   0.00698  -0.1257  0.3609  1.0000  -2.3266   0.0000   0.0000   0.0000   0.3258
   8.000   1.4312   0.01248   0.00718  -0.1249  0.3544  1.0000  -2.3575   0.0000   0.0000   0.0000   0.3247
   8.100   1.4373   0.01271   0.00739  -0.1242  0.3477  1.0000  -2.3996   0.0000   0.0000   0.0000   0.3237
   8.200   1.4436   0.01293   0.00759  -0.1235  0.3413  1.0000  -2.4441   0.0000   0.0000   0.0000   0.3226
   8.300   1.4491   0.01319   0.00782  -0.1227  0.3349  1.0000  -2.4869   0.0000   0.0000   0.0000   0.3216
   8.400   1.4553   0.01343   0.00804  -0.1220  0.3280  1.0000  -2.5317   0.0000   0.0000   0.0000   0.3206
   8.500   1.4609   0.01370   0.00828  -0.1213  0.3213  1.0000  -2.5754   0.0000   0.0000   0.0000   0.3196
   8.600   1.4659   0.01400   0.00854  -0.1204  0.3144  1.0000  -2.6176   0.0000   0.0000   0.0000   0.3186
   8.700   1.4717   0.01427   0.00879  -0.1197  0.3073  1.0000  -2.6622   0.0000   0.0000   0.0000   0.3176
   8.800   1.4770   0.01457   0.00906  -0.1190  0.3005  1.0000  -2.7057   0.0000   0.0000   0.0000   0.3166
   8.900   1.4818   0.01490   0.00936  -0.1182  0.2938  1.0000  -2.7480   0.0000   0.0000   0.0000   0.3157
   9.000   1.4872   0.01520   0.00964  -0.1174  0.2867  1.0000  -2.7922   0.0000   0.0000   0.0000   0.3147
   9.100   1.4924   0.01553   0.00995  -0.1167  0.2798  1.0000  -2.8358   0.0000   0.0000   0.0000   0.3138
   9.200   1.4970   0.01589   0.01027  -0.1159  0.2730  1.0000  -2.8782   0.0000   0.0000   0.0000   0.3128
   9.300   1.5017   0.01625   0.01060  -0.1151  0.2659  1.0000  -2.9211   0.0000   0.0000   0.0000   0.3119
   9.400   1.5067   0.01660   0.01092  -0.1144  0.2590  1.0000  -2.9650   0.0000   0.0000   0.0000   0.3110
   9.500   1.5112   0.01698   0.01127  -0.1136  0.2524  1.0000  -3.0078   0.0000   0.0000   0.0000   0.3101
   9.700   1.5204   0.01774   0.01198  -0.1122  0.2391  1.0000  -3.0943   0.0000   0.0000   0.0000   0.3083
   9.800   1.5250   0.01813   0.01235  -0.1114  0.2329  1.0000  -3.1377   0.0000   0.0000   0.0000   0.3075
  10.000   1.5342   0.01893   0.01310  -0.1100  0.2211  1.0000  -3.2252   0.0000   0.0000   0.0000   0.3057
  10.100   1.5385   0.01934   0.01350  -0.1093  0.2155  1.0000  -3.2685   0.0000   0.0000   0.0000   0.3049
  10.200   1.5426   0.01978   0.01390  -0.1086  0.2097  1.0000  -3.3114   0.0000   0.0000   0.0000   0.3040
  10.300   1.5471   0.02019   0.01430  -0.1079  0.2038  1.0000  -3.3555   0.0000   0.0000   0.0000   0.3032
  10.400   1.5510   0.02065   0.01473  -0.1071  0.1982  1.0000  -3.3980   0.0000   0.0000   0.0000   0.3024
  10.500   1.5548   0.02112   0.01518  -0.1064  0.1922  1.0000  -3.4404   0.0000   0.0000   0.0000   0.3016
  10.600   1.5588   0.02157   0.01561  -0.1057  0.1863  1.0000  -3.4837   0.0000   0.0000   0.0000   0.3007
  10.700   1.5623   0.02207   0.01608  -0.1049  0.1806  1.0000  -3.5253   0.0000   0.0000   0.0000   0.2999
  10.800   1.5654   0.02259   0.01657  -0.1041  0.1747  1.0000  -3.5661   0.0000   0.0000   0.0000   0.2991
  10.900   1.5690   0.02308   0.01704  -0.1034  0.1688  1.0000  -3.6087   0.0000   0.0000   0.0000   0.2983
  11.000   1.5723   0.02360   0.01754  -0.1027  0.1634  1.0000  -3.6502   0.0000   0.0000   0.0000   0.2975
  11.200   1.5787   0.02466   0.01855  -0.1012  0.1527  1.0000  -3.7335   0.0000   0.0000   0.0000   0.2959
  11.300   1.5818   0.02520   0.01908  -0.1005  0.1478  1.0000  -3.7749   0.0000   0.0000   0.0000   0.2951
  11.400   1.5846   0.02577   0.01962  -0.0997  0.1428  1.0000  -3.8155   0.0000   0.0000   0.0000   0.2944
  11.500   1.5879   0.02631   0.02014  -0.0990  0.1378  1.0000  -3.8576   0.0000   0.0000   0.0000   0.2936
  11.600   1.5905   0.02689   0.02070  -0.0983  0.1331  1.0000  -3.8981   0.0000   0.0000   0.0000   0.2928
  11.700   1.5932   0.02747   0.02127  -0.0975  0.1284  1.0000  -3.9387   0.0000   0.0000   0.0000   0.2921
  11.800   1.5963   0.02804   0.02182  -0.0968  0.1241  1.0000  -3.9805   0.0000   0.0000   0.0000   0.2913
  11.900   1.5985   0.02866   0.02242  -0.0961  0.1199  1.0000  -4.0201   0.0000   0.0000   0.0000   0.2906
  12.000   1.6018   0.02922   0.02297  -0.0955  0.1157  1.0000  -4.0627   0.0000   0.0000   0.0000   0.2899
  12.100   1.6043   0.02983   0.02357  -0.0948  0.1119  1.0000  -4.1032   0.0000   0.0000   0.0000   0.2891
  12.200   1.6070   0.03043   0.02417  -0.0941  0.1080  1.0000  -4.1445   0.0000   0.0000   0.0000   0.2884
  12.300   1.6095   0.03105   0.02478  -0.0934  0.1045  1.0000  -4.1852   0.0000   0.0000   0.0000   0.2877
  12.400   1.6119   0.03168   0.02540  -0.0927  0.1009  1.0000  -4.2256   0.0000   0.0000   0.0000   0.2870
  12.500   1.6144   0.03231   0.02602  -0.0921  0.0977  1.0000  -4.2664   0.0000   0.0000   0.0000   0.2863
  12.600   1.6167   0.03296   0.02667  -0.0914  0.0944  1.0000  -4.3068   0.0000   0.0000   0.0000   0.2856
  12.700   1.6192   0.03361   0.02731  -0.0908  0.0914  1.0000  -4.3477   0.0000   0.0000   0.0000   0.2849
  12.800   1.6216   0.03428   0.02797  -0.0901  0.0883  1.0000  -4.3884   0.0000   0.0000   0.0000   0.2843
  12.900   1.6240   0.03495   0.02864  -0.0895  0.0856  1.0000  -4.4290   0.0000   0.0000   0.0000   0.2836
  13.000   1.6265   0.03562   0.02931  -0.0889  0.0827  1.0000  -4.4703   0.0000   0.0000   0.0000   0.2829
  13.100   1.6284   0.03634   0.03003  -0.0883  0.0803  1.0000  -4.5123   0.0000   0.0000   0.0000   0.2823
  13.200   1.6312   0.03700   0.03069  -0.0878  0.0777  1.0000  -4.5576   0.0000   0.0000   0.0000   0.2817
  13.300   1.6329   0.03775   0.03143  -0.0872  0.0754  1.0000  -4.5989   0.0000   0.0000   0.0000   0.2810
  13.400   1.6355   0.03842   0.03212  -0.0866  0.0733  1.0000  -4.6437   0.0000   0.0000   0.0000   0.2804
  13.500   1.6377   0.03914   0.03284  -0.0861  0.0711  1.0000  -4.6871   0.0000   0.0000   0.0000   0.2798
  13.600   1.6390   0.03995   0.03364  -0.0855  0.0692  1.0000  -4.7274   0.0000   0.0000   0.0000   0.2792
  13.700   1.6421   0.04061   0.03432  -0.0850  0.0672  1.0000  -4.7741   0.0000   0.0000   0.0000   0.2786
  13.800   1.6441   0.04137   0.03509  -0.0845  0.0654  1.0000  -4.8171   0.0000   0.0000   0.0000   0.2780
  13.900   1.6454   0.04221   0.03592  -0.0839  0.0637  1.0000  -4.8573   0.0000   0.0000   0.0000   0.2774
  14.000   1.6483   0.04289   0.03663  -0.0835  0.0620  1.0000  -4.9039   0.0000   0.0000   0.0000   0.2768
  14.100   1.6504   0.04367   0.03741  -0.0830  0.0604  1.0000  -4.9473   0.0000   0.0000   0.0000   0.2763
  14.200   1.6517   0.04452   0.03827  -0.0825  0.0589  1.0000  -4.9881   0.0000   0.0000   0.0000   0.2757
  14.300   1.6539   0.04530   0.03906  -0.0821  0.0576  1.0000  -5.0321   0.0000   0.0000   0.0000   0.2751
  14.400   1.6562   0.04607   0.03985  -0.0816  0.0561  1.0000  -5.0767   0.0000   0.0000   0.0000   0.2746
  14.500   1.6578   0.04691   0.04069  -0.0812  0.0548  1.0000  -5.1186   0.0000   0.0000   0.0000   0.2740
  14.600   1.6585   0.04784   0.04163  -0.0807  0.0536  1.0000  -5.1570   0.0000   0.0000   0.0000   0.2735
  14.700   1.6609   0.04861   0.04243  -0.0803  0.0524  1.0000  -5.2021   0.0000   0.0000   0.0000   0.2730
  14.800   1.6630   0.04942   0.04325  -0.0799  0.0511  1.0000  -5.2461   0.0000   0.0000   0.0000   0.2725
  14.900   1.6642   0.05032   0.04417  -0.0795  0.0500  1.0000  -5.2867   0.0000   0.0000   0.0000   0.2719
  15.000   1.6648   0.05129   0.04515  -0.0791  0.0489  1.0000  -5.3250   0.0000   0.0000   0.0000   0.2714
  15.100   1.6666   0.05216   0.04603  -0.0787  0.0479  1.0000  -5.3677   0.0000   0.0000   0.0000   0.2709
  15.200   1.6686   0.05300   0.04690  -0.0783  0.0468  1.0000  -5.4115   0.0000   0.0000   0.0000   0.2705
  15.300   1.6700   0.05392   0.04784  -0.0780  0.0457  1.0000  -5.4529   0.0000   0.0000   0.0000   0.2700
  15.400   1.6705   0.05494   0.04886  -0.0776  0.0447  1.0000  -5.4908   0.0000   0.0000   0.0000   0.2695
  15.500   1.6706   0.05600   0.04994  -0.0772  0.0438  1.0000  -5.5346   0.0000   0.0000   0.0000   0.2691
  15.600   1.6728   0.05684   0.05081  -0.0770  0.0429  1.0000  -5.5891   0.0000   0.0000   0.0000   0.2686
  15.700   1.6742   0.05779   0.05178  -0.0767  0.0419  1.0000  -5.6394   0.0000   0.0000   0.0000   0.2681
  15.800   1.6748   0.05881   0.05282  -0.0763  0.0409  1.0000  -5.6867   0.0000   0.0000   0.0000   0.2677
  15.900   1.6745   0.05994   0.05396  -0.0760  0.0401  1.0000  -5.7295   0.0000   0.0000   0.0000   0.2673
  16.000   1.6746   0.06103   0.05508  -0.0757  0.0392  1.0000  -5.7741   0.0000   0.0000   0.0000   0.2669
  16.100   1.6762   0.06196   0.05604  -0.0754  0.0383  1.0000  -5.8260   0.0000   0.0000   0.0000   0.2664
  16.200   1.6768   0.06302   0.05711  -0.0752  0.0374  1.0000  -5.8731   0.0000   0.0000   0.0000   0.2660
  16.300   1.6766   0.06415   0.05827  -0.0749  0.0365  1.0000  -5.9169   0.0000   0.0000   0.0000   0.2656
  16.400   1.6755   0.06542   0.05954  -0.0746  0.0357  1.0000  -5.9557   0.0000   0.0000   0.0000   0.2653
  16.500   1.6754   0.06657   0.06072  -0.0744  0.0350  1.0000  -5.9994   0.0000   0.0000   0.0000   0.2649
  16.600   1.6765   0.06760   0.06179  -0.0742  0.0341  1.0000  -6.0488   0.0000   0.0000   0.0000   0.2645
  16.700   1.6764   0.06877   0.06297  -0.0740  0.0333  1.0000  -6.0931   0.0000   0.0000   0.0000   0.2641
  16.800   1.6758   0.07001   0.06424  -0.0738  0.0325  1.0000  -6.1342   0.0000   0.0000   0.0000   0.2638
  16.900   1.6740   0.07139   0.06564  -0.0736  0.0319  1.0000  -6.1697   0.0000   0.0000   0.0000   0.2635
  17.000   1.6725   0.07276   0.06703  -0.0735  0.0312  1.0000  -6.2060   0.0000   0.0000   0.0000   0.2632
  17.100   1.6731   0.07388   0.06819  -0.0734  0.0305  1.0000  -6.2529   0.0000   0.0000   0.0000   0.2628
  17.200   1.6729   0.07511   0.06945  -0.0732  0.0298  1.0000  -6.2955   0.0000   0.0000   0.0000   0.2625
  17.300   1.6720   0.07642   0.07078  -0.0731  0.0292  1.0000  -6.3352   0.0000   0.0000   0.0000   0.2622
  17.400   1.6704   0.07783   0.07221  -0.0730  0.0287  1.0000  -6.3708   0.0000   0.0000   0.0000   0.2620
  17.500   1.6680   0.07932   0.07373  -0.0729  0.0282  1.0000  -6.4027   0.0000   0.0000   0.0000   0.2617
  17.600   1.6644   0.08099   0.07542  -0.0729  0.0277  1.0000  -6.4274   0.0000   0.0000   0.0000   0.2615
  17.700   1.6640   0.08227   0.07673  -0.0728  0.0273  1.0000  -6.4686   0.0000   0.0000   0.0000   0.2613
  17.800   1.6634   0.08359   0.07809  -0.0728  0.0268  1.0000  -6.5086   0.0000   0.0000   0.0000   0.2610
  17.900   1.6625   0.08494   0.07948  -0.0728  0.0264  1.0000  -6.5473   0.0000   0.0000   0.0000   0.2608
  18.000   1.6609   0.08640   0.08097  -0.0728  0.0259  1.0000  -6.5824   0.0000   0.0000   0.0000   0.2606
  18.100   1.6590   0.08789   0.08249  -0.0728  0.0256  1.0000  -6.6161   0.0000   0.0000   0.0000   0.2604
  18.200   1.6567   0.08947   0.08410  -0.0729  0.0252  1.0000  -6.6471   0.0000   0.0000   0.0000   0.2603
  18.300   1.6539   0.09110   0.08576  -0.0730  0.0249  1.0000  -6.6755   0.0000   0.0000   0.0000   0.2601
  18.400   1.6504   0.09286   0.08754  -0.0731  0.0246  1.0000  -6.6993   0.0000   0.0000   0.0000   0.2600
  18.500   1.6462   0.09472   0.08943  -0.0733  0.0243  1.0000  -6.7184   0.0000   0.0000   0.0000   0.2600
  18.600   1.6432   0.09643   0.09118  -0.0735  0.0240  1.0000  -6.7439   0.0000   0.0000   0.0000   0.2599
  18.700   1.6423   0.09785   0.09264  -0.0736  0.0238  1.0000  -6.7815   0.0000   0.0000   0.0000   0.2598
  18.800   1.6407   0.09936   0.09419  -0.0738  0.0235  1.0000  -6.8156   0.0000   0.0000   0.0000   0.2597
  18.900   1.6391   0.10087   0.09574  -0.0739  0.0232  1.0000  -6.8494   0.0000   0.0000   0.0000   0.2596
  19.000   1.6372   0.10244   0.09735  -0.0742  0.0230  1.0000  -6.8810   0.0000   0.0000   0.0000   0.2595
  19.100   1.6352   0.10401   0.09895  -0.0744  0.0227  1.0000  -6.9126   0.0000   0.0000   0.0000   0.2594
  19.200   1.6329   0.10564   0.10062  -0.0746  0.0225  1.0000  -6.9420   0.0000   0.0000   0.0000   0.2594
  19.300   1.6304   0.10730   0.10232  -0.0749  0.0222  1.0000  -6.9702   0.0000   0.0000   0.0000   0.2594
  19.400   1.6275   0.10903   0.10408  -0.0753  0.0220  1.0000  -6.9962   0.0000   0.0000   0.0000   0.2594
  19.500   1.6245   0.11079   0.10587  -0.0756  0.0218  1.0000  -7.0208   0.0000   0.0000   0.0000   0.2594
  19.600   1.6210   0.11265   0.10776  -0.0760  0.0216  1.0000  -7.0417   0.0000   0.0000   0.0000   0.2595
  19.700   1.6171   0.11456   0.10970  -0.0765  0.0214  1.0000  -7.0604   0.0000   0.0000   0.0000   0.2596
  19.800   1.6125   0.11660   0.11177  -0.0770  0.0212  1.0000  -7.0735   0.0000   0.0000   0.0000   0.2598
  19.900   1.6074   0.11872   0.11392  -0.0775  0.0210  1.0000  -7.0828   0.0000   0.0000   0.0000   0.2601
  20.000   1.6038   0.12064   0.11587  -0.0780  0.0208  1.0000  -7.1007   0.0000   0.0000   0.0000   0.2602


