xflr5 v6.57

 Calculated polar for: QX0023

 1 1 Reynolds number fixed          Mach number fixed         

 xtrf =   1.000 (top)        1.000 (bottom)
 Mach =   0.000     Re =     0.580 e 6     Ncrit =   9.000

  alpha     CL        CD       CDp       Cm    Top Xtr Bot Xtr   Cpmin    Chinge    XCp    
 ------- -------- --------- --------- -------- ------- ------- -------- --------- ---------
 -10.000  -0.2675   0.07420   0.07142  -0.0872  0.8474  0.0272  -3.2062   0.0000   0.0000   0.0000  -0.1051
  -9.900  -0.2656   0.07300   0.07021  -0.0880  0.8459  0.0272  -3.1934   0.0000   0.0000   0.0000  -0.1102
  -9.800  -0.2633   0.07182   0.06904  -0.0888  0.8440  0.0273  -3.1775   0.0000   0.0000   0.0000  -0.1162
  -9.700  -0.2608   0.07070   0.06792  -0.0896  0.8423  0.0274  -3.1579   0.0000   0.0000   0.0000  -0.1225
  -9.600  -0.2579   0.06964   0.06686  -0.0904  0.8407  0.0275  -3.1340   0.0000   0.0000   0.0000  -0.1293
  -9.500  -0.2548   0.06865   0.06586  -0.0912  0.8392  0.0277  -3.1061   0.0000   0.0000   0.0000  -0.1366
  -9.400  -0.2513   0.06772   0.06491  -0.0920  0.8379  0.0278  -3.0744   0.0000   0.0000   0.0000  -0.1444
  -9.300  -0.2471   0.06686   0.06406  -0.0927  0.8361  0.0280  -3.0370   0.0000   0.0000   0.0000  -0.1538
  -9.200  -0.2421   0.06618   0.06339  -0.0934  0.8344  0.0283  -2.9888   0.0000   0.0000   0.0000  -0.1644
  -9.100  -0.2351   0.06599   0.06319  -0.0937  0.8328  0.0288  -2.9125   0.0000   0.0000   0.0000  -0.1774
  -9.000  -0.2294   0.06529   0.06250  -0.0950  0.8313  0.0320  -2.8424   0.0000   0.0000   0.0000  -0.1931
  -8.900  -0.2258   0.06433   0.06152  -0.0958  0.8299  0.0322  -2.8130   0.0000   0.0000   0.0000  -0.2036
  -8.800  -0.2218   0.06340   0.06058  -0.0967  0.8286  0.0324  -2.7808   0.0000   0.0000   0.0000  -0.2152
  -8.700  -0.2170   0.06257   0.05976  -0.0976  0.8268  0.0329  -2.7412   0.0000   0.0000   0.0000  -0.2291
  -8.500  -0.3249   0.01862   0.01279  -0.1328  0.8197  0.0273  -4.8674   0.0000   0.0000   0.0000  -0.1812
  -8.400  -0.3147   0.01826   0.01244  -0.1329  0.8182  0.0276  -4.7862   0.0000   0.0000   0.0000  -0.1950
  -8.300  -0.3043   0.01799   0.01216  -0.1329  0.8167  0.0278  -4.7022   0.0000   0.0000   0.0000  -0.2101
  -8.200  -0.2937   0.01774   0.01190  -0.1330  0.8154  0.0280  -4.6190   0.0000   0.0000   0.0000  -0.2265
  -8.100  -0.2831   0.01750   0.01163  -0.1331  0.8141  0.0283  -4.5367   0.0000   0.0000   0.0000  -0.2441
  -8.000  -0.2724   0.01726   0.01135  -0.1331  0.8129  0.0286  -4.4556   0.0000   0.0000   0.0000  -0.2632
  -7.900  -0.2617   0.01702   0.01106  -0.1332  0.8118  0.0288  -4.3826   0.0000   0.0000   0.0000  -0.2840
  -7.800  -0.2510   0.01678   0.01077  -0.1332  0.8108  0.0291  -4.3106   0.0000   0.0000   0.0000  -0.3065
  -7.700  -0.2403   0.01654   0.01049  -0.1333  0.8096  0.0294  -4.2396   0.0000   0.0000   0.0000  -0.3312
  -7.600  -0.2295   0.01629   0.01022  -0.1333  0.8082  0.0298  -4.1697   0.0000   0.0000   0.0000  -0.3581
  -7.500  -0.2187   0.01605   0.00994  -0.1334  0.8068  0.0301  -4.1003   0.0000   0.0000   0.0000  -0.3879
  -7.400  -0.2078   0.01583   0.00967  -0.1334  0.8055  0.0304  -4.0308   0.0000   0.0000   0.0000  -0.4211
  -7.300  -0.1968   0.01564   0.00942  -0.1334  0.8043  0.0307  -3.9608   0.0000   0.0000   0.0000  -0.4583
  -7.200  -0.1857   0.01548   0.00920  -0.1335  0.8032  0.0310  -3.8896   0.0000   0.0000   0.0000  -0.5004
  -7.100  -0.1754   0.01503   0.00871  -0.1335  0.8021  0.0314  -3.8290   0.0000   0.0000   0.0000  -0.5438
  -7.000  -0.1648   0.01474   0.00841  -0.1336  0.8012  0.0318  -3.7586   0.0000   0.0000   0.0000  -0.5946
  -6.900  -0.1539   0.01455   0.00823  -0.1336  0.7998  0.0322  -3.6838   0.0000   0.0000   0.0000  -0.6541
  -6.800  -0.1429   0.01440   0.00808  -0.1337  0.7984  0.0326  -3.6084   0.0000   0.0000   0.0000  -0.7236
  -6.700  -0.1318   0.01425   0.00793  -0.1338  0.7971  0.0331  -3.5341   0.0000   0.0000   0.0000  -0.8053
  -6.600  -0.1207   0.01411   0.00777  -0.1338  0.7958  0.0336  -3.4614   0.0000   0.0000   0.0000  -0.9025
  -6.500  -0.1095   0.01396   0.00759  -0.1339  0.7946  0.0341  -3.3928   0.0000   0.0000   0.0000  -1.0199
  -6.400  -0.0983   0.01381   0.00740  -0.1339  0.7935  0.0346  -3.3301   0.0000   0.0000   0.0000  -1.1644
  -6.300  -0.0870   0.01368   0.00722  -0.1340  0.7925  0.0351  -3.2681   0.0000   0.0000   0.0000  -1.3475
  -6.200  -0.0756   0.01357   0.00706  -0.1340  0.7916  0.0354  -3.2056   0.0000   0.0000   0.0000  -1.5880
  -6.100  -0.0651   0.01321   0.00671  -0.1341  0.7901  0.0361  -3.1509   0.0000   0.0000   0.0000  -1.8816
  -6.000  -0.0542   0.01301   0.00653  -0.1342  0.7887  0.0366  -3.0878   0.0000   0.0000   0.0000  -2.3107
  -5.900  -0.0431   0.01287   0.00639  -0.1342  0.7874  0.0372  -3.0230   0.0000   0.0000   0.0000  -2.9731
  -5.800  -0.0318   0.01274   0.00625  -0.1343  0.7861  0.0378  -2.9588   0.0000   0.0000   0.0000  -4.1121
  -5.700  -0.0205   0.01262   0.00611  -0.1344  0.7849  0.0384  -2.8957   0.0000   0.0000   0.0000  -6.5174
  -5.600  -0.0091   0.01250   0.00596  -0.1344  0.7838  0.0391  -2.8336   0.0000   0.0000   0.0000  -14.9417
  -5.500   0.0023   0.01240   0.00582  -0.1345  0.7828  0.0398  -2.7720   0.0000   0.0000   0.0000  59.9024
  -5.400   0.0137   0.01229   0.00567  -0.1345  0.7819  0.0404  -2.7113   0.0000   0.0000   0.0000  10.3352
  -5.300   0.0245   0.01204   0.00546  -0.1346  0.7804  0.0413  -2.6525   0.0000   0.0000   0.0000   5.8992
  -5.200   0.0358   0.01192   0.00535  -0.1347  0.7790  0.0421  -2.5892   0.0000   0.0000   0.0000   4.1265
  -5.100   0.0471   0.01183   0.00526  -0.1348  0.7777  0.0430  -2.5262   0.0000   0.0000   0.0000   3.1923
  -5.000   0.0585   0.01174   0.00515  -0.1349  0.7764  0.0440  -2.4645   0.0000   0.0000   0.0000   2.6177
  -4.900   0.0701   0.01166   0.00504  -0.1349  0.7752  0.0450  -2.4036   0.0000   0.0000   0.0000   2.2281
  -4.800   0.0813   0.01150   0.00486  -0.1350  0.7741  0.0460  -2.3453   0.0000   0.0000   0.0000   1.9539
  -4.700   0.0927   0.01136   0.00473  -0.1351  0.7731  0.0470  -2.2846   0.0000   0.0000   0.0000   1.7450
  -4.500   0.1155   0.01119   0.00455  -0.1353  0.7707  0.0493  -2.1754   0.0000   0.0000   0.0000   1.4493
  -4.400   0.1270   0.01112   0.00446  -0.1353  0.7693  0.0504  -2.1222   0.0000   0.0000   0.0000   1.3412
  -4.300   0.1382   0.01096   0.00432  -0.1354  0.7679  0.0518  -2.0702   0.0000   0.0000   0.0000   1.2524
  -4.200   0.1497   0.01086   0.00423  -0.1355  0.7666  0.0532  -2.0158   0.0000   0.0000   0.0000   1.1759
  -4.100   0.1612   0.01079   0.00414  -0.1356  0.7654  0.0548  -1.9619   0.0000   0.0000   0.0000   1.1096
  -4.000   0.1728   0.01072   0.00405  -0.1357  0.7643  0.0565  -1.9090   0.0000   0.0000   0.0000   1.0518
  -3.900   0.1843   0.01060   0.00393  -0.1358  0.7632  0.0585  -1.8560   0.0000   0.0000   0.0000   1.0021
  -3.800   0.1959   0.01053   0.00386  -0.1359  0.7622  0.0607  -1.8029   0.0000   0.0000   0.0000   0.9576
  -3.700   0.2072   0.01044   0.00378  -0.1359  0.7606  0.0630  -1.7519   0.0000   0.0000   0.0000   0.9188
  -3.600   0.2186   0.01034   0.00370  -0.1360  0.7591  0.0656  -1.7002   0.0000   0.0000   0.0000   0.8841
  -3.500   0.2301   0.01027   0.00363  -0.1361  0.7577  0.0687  -1.6491   0.0000   0.0000   0.0000   0.8523
  -3.400   0.2415   0.01017   0.00355  -0.1362  0.7564  0.0725  -1.5979   0.0000   0.0000   0.0000   0.8238
  -3.300   0.2531   0.01008   0.00347  -0.1363  0.7551  0.0769  -1.5472   0.0000   0.0000   0.0000   0.7977
  -3.200   0.2647   0.00999   0.00339  -0.1364  0.7540  0.0824  -1.4966   0.0000   0.0000   0.0000   0.7737
  -3.100   0.2763   0.00991   0.00331  -0.1365  0.7529  0.0891  -1.4463   0.0000   0.0000   0.0000   0.7518
  -3.000   0.2877   0.00982   0.00326  -0.1366  0.7517  0.0971  -1.3966   0.0000   0.0000   0.0000   0.7319
  -2.900   0.2991   0.00972   0.00322  -0.1367  0.7501  0.1068  -1.3474   0.0000   0.0000   0.0000   0.7137
  -2.800   0.3105   0.00963   0.00317  -0.1368  0.7485  0.1181  -1.3003   0.0000   0.0000   0.0000   0.6967
  -2.700   0.3219   0.00954   0.00313  -0.1369  0.7471  0.1302  -1.2551   0.0000   0.0000   0.0000   0.6809
  -2.600   0.3334   0.00946   0.00308  -0.1370  0.7457  0.1431  -1.2099   0.0000   0.0000   0.0000   0.6661
  -2.500   0.3450   0.00938   0.00304  -0.1372  0.7445  0.1558  -1.1649   0.0000   0.0000   0.0000   0.6522
  -2.400   0.3566   0.00932   0.00300  -0.1373  0.7433  0.1686  -1.1200   0.0000   0.0000   0.0000   0.6392
  -2.300   0.3683   0.00926   0.00296  -0.1374  0.7422  0.1813  -1.0756   0.0000   0.0000   0.0000   0.6270
  -2.200   0.3795   0.00919   0.00295  -0.1375  0.7404  0.1937  -1.0322   0.0000   0.0000   0.0000   0.6157
  -2.100   0.3909   0.00912   0.00293  -0.1376  0.7388  0.2065  -0.9889   0.0000   0.0000   0.0000   0.6051
  -2.000   0.4024   0.00906   0.00290  -0.1377  0.7372  0.2202  -0.9458   0.0000   0.0000   0.0000   0.5950
  -1.800   0.4255   0.00893   0.00284  -0.1379  0.7345  0.2497  -0.8606   0.0000   0.0000   0.0000   0.5763
  -1.700   0.4372   0.00887   0.00281  -0.1380  0.7332  0.2649  -0.8217   0.0000   0.0000   0.0000   0.5677
  -1.600   0.4488   0.00882   0.00279  -0.1382  0.7320  0.2806  -0.7833   0.0000   0.0000   0.0000   0.5596
  -1.500   0.4600   0.00874   0.00279  -0.1382  0.7302  0.2983  -0.7865   0.0000   0.0000   0.0000   0.5520
  -1.400   0.4714   0.00867   0.00278  -0.1383  0.7284  0.3180  -0.7937   0.0000   0.0000   0.0000   0.5447
  -1.200   0.4943   0.00853   0.00275  -0.1385  0.7253  0.3619  -0.8082   0.0000   0.0000   0.0000   0.5310
  -1.100   0.5058   0.00845   0.00273  -0.1387  0.7239  0.3863  -0.8157   0.0000   0.0000   0.0000   0.5247
  -1.000   0.5174   0.00837   0.00272  -0.1388  0.7227  0.4136  -0.8233   0.0000   0.0000   0.0000   0.5186
  -0.900   0.5287   0.00829   0.00272  -0.1389  0.7211  0.4418  -0.8308   0.0000   0.0000   0.0000   0.5128
  -0.800   0.5399   0.00820   0.00274  -0.1389  0.7192  0.4718  -0.8386   0.0000   0.0000   0.0000   0.5073
  -0.700   0.5511   0.00812   0.00275  -0.1390  0.7175  0.5037  -0.8464   0.0000   0.0000   0.0000   0.5020
  -0.600   0.5624   0.00804   0.00275  -0.1391  0.7158  0.5350  -0.8544   0.0000   0.0000   0.0000   0.4968
  -0.500   0.5738   0.00798   0.00275  -0.1391  0.7143  0.5633  -0.8625   0.0000   0.0000   0.0000   0.4918
  -0.400   0.5851   0.00792   0.00275  -0.1392  0.7129  0.5904  -0.8706   0.0000   0.0000   0.0000   0.4870
  -0.300   0.5964   0.00787   0.00276  -0.1392  0.7115  0.6159  -0.8787   0.0000   0.0000   0.0000   0.4824
  -0.200   0.6073   0.00781   0.00280  -0.1391  0.7095  0.6422  -0.8867   0.0000   0.0000   0.0000   0.4780
  -0.100   0.6184   0.00777   0.00282  -0.1391  0.7076  0.6666  -0.8949   0.0000   0.0000   0.0000   0.4736
   0.000   0.6295   0.00774   0.00283  -0.1391  0.7058  0.6871  -0.9033   0.0000   0.0000   0.0000   0.4694
   0.100   0.6407   0.00771   0.00284  -0.1390  0.7042  0.7057  -0.9121   0.0000   0.0000   0.0000   0.4654
   0.400   0.6739   0.00764   0.00288  -0.1389  0.6990  0.7527  -0.9385   0.0000   0.0000   0.0000   0.4540
   0.500   0.6848   0.00762   0.00290  -0.1388  0.6970  0.7679  -0.9473   0.0000   0.0000   0.0000   0.4504
   0.600   0.6957   0.00760   0.00290  -0.1387  0.6951  0.7822  -0.9562   0.0000   0.0000   0.0000   0.4470
   0.700   0.7065   0.00758   0.00291  -0.1386  0.6934  0.7959  -0.9652   0.0000   0.0000   0.0000   0.4436
   0.800   0.7174   0.00756   0.00291  -0.1384  0.6919  0.8097  -0.9744   0.0000   0.0000   0.0000   0.4403
   0.900   0.7280   0.00755   0.00293  -0.1383  0.6899  0.8242  -0.9836   0.0000   0.0000   0.0000   0.4371
   1.000   0.7382   0.00752   0.00295  -0.1380  0.6877  0.8386  -0.9929   0.0000   0.0000   0.0000   0.4340
   1.100   0.7485   0.00750   0.00296  -0.1378  0.6856  0.8533  -1.0022   0.0000   0.0000   0.0000   0.4310
   1.200   0.7583   0.00747   0.00297  -0.1374  0.6837  0.8685  -1.0115   0.0000   0.0000   0.0000   0.4279
   1.300   0.7680   0.00744   0.00296  -0.1370  0.6820  0.8858  -1.0208   0.0000   0.0000   0.0000   0.4250
   1.400   0.7773   0.00742   0.00296  -0.1364  0.6803  0.9050  -1.0299   0.0000   0.0000   0.0000   0.4220
   1.500   0.7863   0.00738   0.00297  -0.1359  0.6779  0.9273  -1.0388   0.0000   0.0000   0.0000   0.4192
   1.600   0.7981   0.00734   0.00296  -0.1359  0.6756  0.9543  -1.0494   0.0000   0.0000   0.0000   0.4165
   1.700   0.8155   0.00730   0.00292  -0.1372  0.6734  1.0000  -1.0637   0.0000   0.0000   0.0000   0.4144
   1.800   0.8271   0.00733   0.00292  -0.1374  0.6715  1.0000  -1.0749   0.0000   0.0000   0.0000   0.4120
   1.900   0.8387   0.00736   0.00292  -0.1375  0.6695  1.0000  -1.0862   0.0000   0.0000   0.0000   0.4098
   2.000   0.8500   0.00738   0.00295  -0.1375  0.6670  1.0000  -1.0974   0.0000   0.0000   0.0000   0.4075
   2.100   0.8613   0.00741   0.00296  -0.1376  0.6646  1.0000  -1.1086   0.0000   0.0000   0.0000   0.4054
   2.200   0.8728   0.00743   0.00297  -0.1377  0.6624  1.0000  -1.1203   0.0000   0.0000   0.0000   0.4032
   2.300   0.8843   0.00747   0.00297  -0.1378  0.6604  1.0000  -1.1320   0.0000   0.0000   0.0000   0.4011
   2.400   0.8955   0.00749   0.00299  -0.1378  0.6579  1.0000  -1.1436   0.0000   0.0000   0.0000   0.3991
   2.500   0.9068   0.00752   0.00302  -0.1379  0.6552  1.0000  -1.1552   0.0000   0.0000   0.0000   0.3971
   2.600   0.9180   0.00755   0.00304  -0.1379  0.6527  1.0000  -1.1672   0.0000   0.0000   0.0000   0.3952
   2.700   0.9294   0.00758   0.00305  -0.1380  0.6504  1.0000  -1.1795   0.0000   0.0000   0.0000   0.3933
   2.800   0.9406   0.00762   0.00307  -0.1380  0.6480  1.0000  -1.1920   0.0000   0.0000   0.0000   0.3914
   2.900   0.9517   0.00764   0.00310  -0.1381  0.6451  1.0000  -1.2046   0.0000   0.0000   0.0000   0.3896
   3.000   0.9629   0.00768   0.00312  -0.1381  0.6423  1.0000  -1.2173   0.0000   0.0000   0.0000   0.3878
   3.100   0.9741   0.00772   0.00314  -0.1381  0.6399  1.0000  -1.2300   0.0000   0.0000   0.0000   0.3861
   3.200   0.9852   0.00775   0.00316  -0.1381  0.6373  1.0000  -1.2430   0.0000   0.0000   0.0000   0.3844
   3.300   0.9962   0.00778   0.00320  -0.1382  0.6342  1.0000  -1.2560   0.0000   0.0000   0.0000   0.3827
   3.400   1.0073   0.00782   0.00323  -0.1382  0.6312  1.0000  -1.2691   0.0000   0.0000   0.0000   0.3811
   3.500   1.0183   0.00787   0.00325  -0.1382  0.6286  1.0000  -1.2835   0.0000   0.0000   0.0000   0.3795
   3.600   1.0293   0.00790   0.00329  -0.1382  0.6254  1.0000  -1.2978   0.0000   0.0000   0.0000   0.3779
   3.700   1.0402   0.00794   0.00332  -0.1382  0.6221  1.0000  -1.3121   0.0000   0.0000   0.0000   0.3763
   3.800   1.0511   0.00799   0.00335  -0.1381  0.6191  1.0000  -1.3269   0.0000   0.0000   0.0000   0.3748
   3.900   1.0620   0.00804   0.00338  -0.1381  0.6161  1.0000  -1.3417   0.0000   0.0000   0.0000   0.3733
   4.000   1.0729   0.00807   0.00343  -0.1381  0.6124  1.0000  -1.3565   0.0000   0.0000   0.0000   0.3718
   4.100   1.0836   0.00812   0.00347  -0.1380  0.6090  1.0000  -1.3719   0.0000   0.0000   0.0000   0.3704
   4.200   1.0943   0.00818   0.00350  -0.1380  0.6057  1.0000  -1.3881   0.0000   0.0000   0.0000   0.3690
   4.300   1.1050   0.00822   0.00355  -0.1379  0.6017  1.0000  -1.4044   0.0000   0.0000   0.0000   0.3676
   4.400   1.1156   0.00828   0.00359  -0.1379  0.5979  1.0000  -1.4207   0.0000   0.0000   0.0000   0.3662
   4.500   1.1262   0.00834   0.00364  -0.1378  0.5943  1.0000  -1.4373   0.0000   0.0000   0.0000   0.3648
   4.600   1.1368   0.00839   0.00369  -0.1377  0.5900  1.0000  -1.4542   0.0000   0.0000   0.0000   0.3635
   4.700   1.1472   0.00846   0.00373  -0.1376  0.5862  1.0000  -1.4709   0.0000   0.0000   0.0000   0.3622
   4.800   1.1577   0.00851   0.00379  -0.1375  0.5821  1.0000  -1.4878   0.0000   0.0000   0.0000   0.3609
   4.900   1.1681   0.00858   0.00385  -0.1374  0.5777  1.0000  -1.5064   0.0000   0.0000   0.0000   0.3596
   5.000   1.1782   0.00866   0.00390  -0.1373  0.5736  1.0000  -1.5248   0.0000   0.0000   0.0000   0.3583
   5.100   1.1886   0.00871   0.00396  -0.1372  0.5687  1.0000  -1.5435   0.0000   0.0000   0.0000   0.3571
   5.200   1.1986   0.00880   0.00402  -0.1370  0.5641  1.0000  -1.5625   0.0000   0.0000   0.0000   0.3558
   5.300   1.2088   0.00887   0.00409  -0.1369  0.5593  1.0000  -1.5818   0.0000   0.0000   0.0000   0.3546
   5.400   1.2187   0.00895   0.00416  -0.1367  0.5543  1.0000  -1.6009   0.0000   0.0000   0.0000   0.3534
   5.500   1.2287   0.00903   0.00423  -0.1365  0.5495  1.0000  -1.6220   0.0000   0.0000   0.0000   0.3522
   5.600   1.2385   0.00912   0.00430  -0.1363  0.5441  1.0000  -1.6433   0.0000   0.0000   0.0000   0.3510
   5.700   1.2482   0.00921   0.00438  -0.1361  0.5390  1.0000  -1.6649   0.0000   0.0000   0.0000   0.3499
   5.800   1.2579   0.00931   0.00446  -0.1359  0.5331  1.0000  -1.6883   0.0000   0.0000   0.0000   0.3487
   5.900   1.2673   0.00941   0.00454  -0.1356  0.5274  1.0000  -1.7130   0.0000   0.0000   0.0000   0.3476
   6.000   1.2766   0.00952   0.00463  -0.1353  0.5214  1.0000  -1.7379   0.0000   0.0000   0.0000   0.3464
   6.100   1.2860   0.00963   0.00472  -0.1351  0.5153  1.0000  -1.7641   0.0000   0.0000   0.0000   0.3453
   6.200   1.2949   0.00975   0.00482  -0.1347  0.5091  1.0000  -1.7932   0.0000   0.0000   0.0000   0.3441
   6.300   1.3041   0.00986   0.00492  -0.1344  0.5027  1.0000  -1.8229   0.0000   0.0000   0.0000   0.3430
   6.400   1.3127   0.01000   0.00503  -0.1340  0.4963  1.0000  -1.8518   0.0000   0.0000   0.0000   0.3419
   6.500   1.3216   0.01013   0.00514  -0.1337  0.4893  1.0000  -1.8817   0.0000   0.0000   0.0000   0.3408
   6.600   1.3301   0.01027   0.00526  -0.1333  0.4823  1.0000  -1.9121   0.0000   0.0000   0.0000   0.3397
   6.800   1.3464   0.01058   0.00551  -0.1323  0.4678  1.0000  -1.9728   0.0000   0.0000   0.0000   0.3375
   6.900   1.3543   0.01074   0.00564  -0.1318  0.4605  1.0000  -2.0042   0.0000   0.0000   0.0000   0.3364
   7.000   1.3617   0.01093   0.00579  -0.1312  0.4531  1.0000  -2.0347   0.0000   0.0000   0.0000   0.3353
   7.100   1.3695   0.01109   0.00593  -0.1307  0.4453  1.0000  -2.0668   0.0000   0.0000   0.0000   0.3342
   7.200   1.3769   0.01127   0.00608  -0.1301  0.4378  1.0000  -2.0992   0.0000   0.0000   0.0000   0.3332
   7.300   1.3837   0.01147   0.00624  -0.1295  0.4304  1.0000  -2.1308   0.0000   0.0000   0.0000   0.3320
   7.400   1.3909   0.01165   0.00640  -0.1289  0.4229  1.0000  -2.1630   0.0000   0.0000   0.0000   0.3310
   7.500   1.3977   0.01184   0.00656  -0.1282  0.4155  1.0000  -2.1948   0.0000   0.0000   0.0000   0.3299
   7.600   1.4031   0.01205   0.00674  -0.1272  0.4086  1.0000  -2.2243   0.0000   0.0000   0.0000   0.3287
   7.700   1.4091   0.01225   0.00691  -0.1264  0.4012  1.0000  -2.2549   0.0000   0.0000   0.0000   0.3276
   7.800   1.4150   0.01246   0.00710  -0.1256  0.3940  1.0000  -2.2855   0.0000   0.0000   0.0000   0.3265
   7.900   1.4204   0.01270   0.00730  -0.1247  0.3870  1.0000  -2.3152   0.0000   0.0000   0.0000   0.3253
   8.000   1.4263   0.01292   0.00750  -0.1239  0.3798  1.0000  -2.3460   0.0000   0.0000   0.0000   0.3243
   8.100   1.4322   0.01315   0.00772  -0.1231  0.3730  1.0000  -2.3817   0.0000   0.0000   0.0000   0.3232
   8.200   1.4374   0.01342   0.00795  -0.1223  0.3665  1.0000  -2.4233   0.0000   0.0000   0.0000   0.3221
   8.300   1.4435   0.01365   0.00817  -0.1216  0.3596  1.0000  -2.4677   0.0000   0.0000   0.0000   0.3211
   8.400   1.4491   0.01391   0.00841  -0.1208  0.3532  1.0000  -2.5106   0.0000   0.0000   0.0000   0.3201
   8.500   1.4543   0.01420   0.00866  -0.1200  0.3466  1.0000  -2.5530   0.0000   0.0000   0.0000   0.3191
   8.600   1.4602   0.01446   0.00891  -0.1193  0.3401  1.0000  -2.5974   0.0000   0.0000   0.0000   0.3181
   8.700   1.4652   0.01476   0.00919  -0.1184  0.3338  1.0000  -2.6397   0.0000   0.0000   0.0000   0.3171
   8.800   1.4706   0.01506   0.00946  -0.1177  0.3271  1.0000  -2.6832   0.0000   0.0000   0.0000   0.3161
   8.900   1.4759   0.01536   0.00974  -0.1170  0.3205  1.0000  -2.7266   0.0000   0.0000   0.0000   0.3152
   9.000   1.4805   0.01571   0.01006  -0.1161  0.3139  1.0000  -2.7683   0.0000   0.0000   0.0000   0.3142
   9.100   1.4857   0.01603   0.01036  -0.1154  0.3070  1.0000  -2.8120   0.0000   0.0000   0.0000   0.3133
   9.200   1.4906   0.01637   0.01069  -0.1147  0.3004  1.0000  -2.8550   0.0000   0.0000   0.0000   0.3123
   9.300   1.4948   0.01676   0.01104  -0.1138  0.2938  1.0000  -2.8964   0.0000   0.0000   0.0000   0.3114
   9.400   1.4997   0.01712   0.01137  -0.1131  0.2867  1.0000  -2.9397   0.0000   0.0000   0.0000   0.3105
   9.500   1.5043   0.01749   0.01173  -0.1124  0.2798  1.0000  -2.9824   0.0000   0.0000   0.0000   0.3096
   9.600   1.5083   0.01791   0.01211  -0.1115  0.2731  1.0000  -3.0237   0.0000   0.0000   0.0000   0.3087
   9.700   1.5124   0.01832   0.01249  -0.1108  0.2660  1.0000  -3.0657   0.0000   0.0000   0.0000   0.3078
   9.800   1.5169   0.01872   0.01287  -0.1100  0.2591  1.0000  -3.1084   0.0000   0.0000   0.0000   0.3069
   9.900   1.5208   0.01916   0.01328  -0.1093  0.2524  1.0000  -3.1501   0.0000   0.0000   0.0000   0.3060
  10.100   1.5287   0.02004   0.01411  -0.1077  0.2390  1.0000  -3.2339   0.0000   0.0000   0.0000   0.3043
  10.200   1.5327   0.02049   0.01454  -0.1070  0.2329  1.0000  -3.2761   0.0000   0.0000   0.0000   0.3035
  10.400   1.5407   0.02140   0.01541  -0.1055  0.2209  1.0000  -3.3610   0.0000   0.0000   0.0000   0.3018
  10.500   1.5445   0.02187   0.01586  -0.1048  0.2153  1.0000  -3.4032   0.0000   0.0000   0.0000   0.3010
  10.600   1.5479   0.02237   0.01633  -0.1041  0.2095  1.0000  -3.4443   0.0000   0.0000   0.0000   0.3002
  10.700   1.5518   0.02284   0.01678  -0.1034  0.2035  1.0000  -3.4873   0.0000   0.0000   0.0000   0.2994
  10.800   1.5551   0.02336   0.01728  -0.1026  0.1978  1.0000  -3.5282   0.0000   0.0000   0.0000   0.2985
  10.900   1.5580   0.02390   0.01779  -0.1018  0.1919  1.0000  -3.5684   0.0000   0.0000   0.0000   0.2977
  11.000   1.5615   0.02441   0.01829  -0.1011  0.1859  1.0000  -3.6104   0.0000   0.0000   0.0000   0.2969
  11.100   1.5645   0.02496   0.01881  -0.1004  0.1802  1.0000  -3.6508   0.0000   0.0000   0.0000   0.2962
  11.300   1.5703   0.02608   0.01990  -0.0989  0.1689  1.0000  -3.7318   0.0000   0.0000   0.0000   0.2946
  11.400   1.5730   0.02666   0.02045  -0.0981  0.1637  1.0000  -3.7718   0.0000   0.0000   0.0000   0.2938
  11.500   1.5753   0.02727   0.02103  -0.0974  0.1585  1.0000  -3.8109   0.0000   0.0000   0.0000   0.2930
  11.600   1.5784   0.02783   0.02158  -0.0967  0.1533  1.0000  -3.8522   0.0000   0.0000   0.0000   0.2923
  11.700   1.5808   0.02844   0.02218  -0.0959  0.1484  1.0000  -3.8916   0.0000   0.0000   0.0000   0.2915
  11.800   1.5832   0.02906   0.02278  -0.0952  0.1434  1.0000  -3.9311   0.0000   0.0000   0.0000   0.2908
  11.900   1.5859   0.02966   0.02337  -0.0945  0.1385  1.0000  -3.9716   0.0000   0.0000   0.0000   0.2901
  12.000   1.5879   0.03032   0.02400  -0.0938  0.1340  1.0000  -4.0100   0.0000   0.0000   0.0000   0.2893
  12.100   1.5904   0.03094   0.02461  -0.0931  0.1293  1.0000  -4.0503   0.0000   0.0000   0.0000   0.2886
  12.200   1.5926   0.03158   0.02524  -0.0924  0.1251  1.0000  -4.0895   0.0000   0.0000   0.0000   0.2879
  12.300   1.5945   0.03226   0.02590  -0.0917  0.1209  1.0000  -4.1278   0.0000   0.0000   0.0000   0.2872
  12.400   1.5969   0.03290   0.02654  -0.0910  0.1168  1.0000  -4.1680   0.0000   0.0000   0.0000   0.2865
  12.500   1.5985   0.03362   0.02724  -0.0903  0.1129  1.0000  -4.2053   0.0000   0.0000   0.0000   0.2858
  12.600   1.6011   0.03426   0.02788  -0.0897  0.1089  1.0000  -4.2462   0.0000   0.0000   0.0000   0.2851
  12.700   1.6028   0.03498   0.02859  -0.0890  0.1054  1.0000  -4.2843   0.0000   0.0000   0.0000   0.2844
  12.800   1.6051   0.03567   0.02927  -0.0884  0.1017  1.0000  -4.3242   0.0000   0.0000   0.0000   0.2838
  12.900   1.6069   0.03641   0.03000  -0.0878  0.0985  1.0000  -4.3625   0.0000   0.0000   0.0000   0.2831
  13.000   1.6091   0.03711   0.03070  -0.0872  0.0952  1.0000  -4.4024   0.0000   0.0000   0.0000   0.2824
  13.100   1.6107   0.03787   0.03146  -0.0866  0.0923  1.0000  -4.4400   0.0000   0.0000   0.0000   0.2818
  13.200   1.6130   0.03858   0.03216  -0.0860  0.0892  1.0000  -4.4827   0.0000   0.0000   0.0000   0.2812
  13.300   1.6142   0.03939   0.03296  -0.0854  0.0866  1.0000  -4.5218   0.0000   0.0000   0.0000   0.2805
  13.400   1.6166   0.04009   0.03368  -0.0849  0.0838  1.0000  -4.5654   0.0000   0.0000   0.0000   0.2799
  13.500   1.6180   0.04091   0.03449  -0.0843  0.0813  1.0000  -4.6051   0.0000   0.0000   0.0000   0.2793
  13.600   1.6201   0.04166   0.03526  -0.0838  0.0790  1.0000  -4.6476   0.0000   0.0000   0.0000   0.2787
  13.700   1.6218   0.04245   0.03605  -0.0833  0.0766  1.0000  -4.6890   0.0000   0.0000   0.0000   0.2781
  13.800   1.6229   0.04332   0.03692  -0.0827  0.0746  1.0000  -4.7278   0.0000   0.0000   0.0000   0.2775
  13.900   1.6253   0.04407   0.03768  -0.0823  0.0724  1.0000  -4.7715   0.0000   0.0000   0.0000   0.2770
  14.000   1.6267   0.04492   0.03853  -0.0818  0.0705  1.0000  -4.8119   0.0000   0.0000   0.0000   0.2764
  14.100   1.6278   0.04580   0.03942  -0.0813  0.0687  1.0000  -4.8510   0.0000   0.0000   0.0000   0.2759
  14.200   1.6300   0.04658   0.04022  -0.0808  0.0669  1.0000  -4.8944   0.0000   0.0000   0.0000   0.2753
  14.300   1.6313   0.04745   0.04110  -0.0804  0.0651  1.0000  -4.9343   0.0000   0.0000   0.0000   0.2748
  14.400   1.6317   0.04842   0.04207  -0.0799  0.0637  1.0000  -4.9708   0.0000   0.0000   0.0000   0.2742
  14.500   1.6341   0.04920   0.04287  -0.0795  0.0621  1.0000  -5.0150   0.0000   0.0000   0.0000   0.2737
  14.600   1.6355   0.05008   0.04377  -0.0791  0.0605  1.0000  -5.0555   0.0000   0.0000   0.0000   0.2732
  14.700   1.6361   0.05105   0.04475  -0.0786  0.0592  1.0000  -5.0930   0.0000   0.0000   0.0000   0.2727
  14.800   1.6371   0.05199   0.04570  -0.0782  0.0579  1.0000  -5.1320   0.0000   0.0000   0.0000   0.2722
  14.900   1.6390   0.05286   0.04660  -0.0779  0.0565  1.0000  -5.1741   0.0000   0.0000   0.0000   0.2717
  15.000   1.6401   0.05380   0.04756  -0.0775  0.0552  1.0000  -5.2136   0.0000   0.0000   0.0000   0.2712
  15.100   1.6403   0.05484   0.04861  -0.0771  0.0541  1.0000  -5.2499   0.0000   0.0000   0.0000   0.2707
  15.200   1.6408   0.05588   0.04965  -0.0767  0.0530  1.0000  -5.2866   0.0000   0.0000   0.0000   0.2703
  15.300   1.6427   0.05676   0.05057  -0.0764  0.0518  1.0000  -5.3290   0.0000   0.0000   0.0000   0.2698
  15.400   1.6436   0.05775   0.05158  -0.0761  0.0506  1.0000  -5.3677   0.0000   0.0000   0.0000   0.2693
  15.500   1.6438   0.05883   0.05267  -0.0758  0.0496  1.0000  -5.4036   0.0000   0.0000   0.0000   0.2689
  15.600   1.6429   0.06003   0.05388  -0.0754  0.0487  1.0000  -5.4364   0.0000   0.0000   0.0000   0.2685
  15.700   1.6445   0.06096   0.05485  -0.0752  0.0476  1.0000  -5.4867   0.0000   0.0000   0.0000   0.2681
  15.800   1.6456   0.06195   0.05587  -0.0749  0.0465  1.0000  -5.5348   0.0000   0.0000   0.0000   0.2676
  15.900   1.6458   0.06305   0.05699  -0.0746  0.0456  1.0000  -5.5788   0.0000   0.0000   0.0000   0.2672
  16.000   1.6452   0.06425   0.05820  -0.0744  0.0447  1.0000  -5.6195   0.0000   0.0000   0.0000   0.2668
  16.100   1.6438   0.06555   0.05951  -0.0741  0.0438  1.0000  -5.6557   0.0000   0.0000   0.0000   0.2665
  16.200   1.6453   0.06653   0.06053  -0.0739  0.0429  1.0000  -5.7059   0.0000   0.0000   0.0000   0.2661
  16.300   1.6458   0.06762   0.06166  -0.0737  0.0419  1.0000  -5.7516   0.0000   0.0000   0.0000   0.2657
  16.400   1.6454   0.06884   0.06289  -0.0735  0.0410  1.0000  -5.7930   0.0000   0.0000   0.0000   0.2653
  16.500   1.6443   0.07015   0.06422  -0.0733  0.0402  1.0000  -5.8305   0.0000   0.0000   0.0000   0.2650
  16.600   1.6420   0.07162   0.06570  -0.0731  0.0395  1.0000  -5.8621   0.0000   0.0000   0.0000   0.2647
  16.700   1.6432   0.07266   0.06678  -0.0730  0.0385  1.0000  -5.9110   0.0000   0.0000   0.0000   0.2644
  16.800   1.6432   0.07385   0.06801  -0.0728  0.0376  1.0000  -5.9542   0.0000   0.0000   0.0000   0.2641
  16.900   1.6424   0.07516   0.06934  -0.0727  0.0368  1.0000  -5.9929   0.0000   0.0000   0.0000   0.2638
  17.000   1.6407   0.07658   0.07078  -0.0726  0.0361  1.0000  -6.0275   0.0000   0.0000   0.0000   0.2635
  17.100   1.6374   0.07820   0.07241  -0.0725  0.0355  1.0000  -6.0537   0.0000   0.0000   0.0000   0.2633
  17.200   1.6372   0.07944   0.07370  -0.0724  0.0347  1.0000  -6.0948   0.0000   0.0000   0.0000   0.2630
  17.300   1.6369   0.08070   0.07499  -0.0724  0.0340  1.0000  -6.1359   0.0000   0.0000   0.0000   0.2627
  17.400   1.6359   0.08205   0.07637  -0.0723  0.0333  1.0000  -6.1736   0.0000   0.0000   0.0000   0.2625
  17.500   1.6340   0.08353   0.07787  -0.0723  0.0327  1.0000  -6.2067   0.0000   0.0000   0.0000   0.2623
  17.600   1.6315   0.08510   0.07947  -0.0723  0.0321  1.0000  -6.2361   0.0000   0.0000   0.0000   0.2621
  17.700   1.6276   0.08687   0.08126  -0.0724  0.0317  1.0000  -6.2579   0.0000   0.0000   0.0000   0.2620
  17.800   1.6251   0.08848   0.08290  -0.0724  0.0312  1.0000  -6.2860   0.0000   0.0000   0.0000   0.2618
  17.900   1.6245   0.08984   0.08431  -0.0725  0.0306  1.0000  -6.3241   0.0000   0.0000   0.0000   0.2616
  18.000   1.6233   0.09127   0.08578  -0.0725  0.0301  1.0000  -6.3598   0.0000   0.0000   0.0000   0.2614
  18.100   1.6217   0.09278   0.08732  -0.0726  0.0296  1.0000  -6.3928   0.0000   0.0000   0.0000   0.2613
  18.200   1.6196   0.09435   0.08893  -0.0728  0.0291  1.0000  -6.4233   0.0000   0.0000   0.0000   0.2612
  18.300   1.6169   0.09601   0.09062  -0.0729  0.0287  1.0000  -6.4507   0.0000   0.0000   0.0000   0.2611
  18.400   1.6137   0.09776   0.09239  -0.0731  0.0284  1.0000  -6.4747   0.0000   0.0000   0.0000   0.2611
  18.500   1.6096   0.09964   0.09430  -0.0734  0.0281  1.0000  -6.4931   0.0000   0.0000   0.0000   0.2611
  18.600   1.6046   0.10164   0.09633  -0.0736  0.0278  1.0000  -6.5059   0.0000   0.0000   0.0000   0.2611
  18.700   1.6021   0.10331   0.09804  -0.0739  0.0275  1.0000  -6.5320   0.0000   0.0000   0.0000   0.2611
  18.800   1.6007   0.10481   0.09958  -0.0741  0.0271  1.0000  -6.5646   0.0000   0.0000   0.0000   0.2610
  18.900   1.5988   0.10641   0.10123  -0.0743  0.0268  1.0000  -6.5938   0.0000   0.0000   0.0000   0.2610
  19.000   1.5968   0.10802   0.10288  -0.0746  0.0265  1.0000  -6.6227   0.0000   0.0000   0.0000   0.2609
  19.100   1.5945   0.10969   0.10459  -0.0749  0.0262  1.0000  -6.6497   0.0000   0.0000   0.0000   0.2610
  19.200   1.5923   0.11135   0.10628  -0.0753  0.0259  1.0000  -6.6773   0.0000   0.0000   0.0000   0.2610
  19.300   1.5898   0.11306   0.10802  -0.0756  0.0257  1.0000  -6.7031   0.0000   0.0000   0.0000   0.2610
  19.400   1.5873   0.11479   0.10978  -0.0760  0.0254  1.0000  -6.7285   0.0000   0.0000   0.0000   0.2611
  19.500   1.5842   0.11660   0.11162  -0.0765  0.0252  1.0000  -6.7505   0.0000   0.0000   0.0000   0.2612
  19.600   1.5811   0.11843   0.11348  -0.0769  0.0249  1.0000  -6.7715   0.0000   0.0000   0.0000   0.2613
  19.700   1.5773   0.12036   0.11544  -0.0775  0.0247  1.0000  -6.7883   0.0000   0.0000   0.0000   0.2615
  19.800   1.5732   0.12234   0.11745  -0.0780  0.0245  1.0000  -6.8025   0.0000   0.0000   0.0000   0.2617
  19.900   1.5685   0.12444   0.11957  -0.0786  0.0243  1.0000  -6.8118   0.0000   0.0000   0.0000   0.2620
  20.000   1.5656   0.12627   0.12144  -0.0792  0.0241  1.0000  -6.8315   0.0000   0.0000   0.0000   0.2622


