xflr5 v6.57

 Calculated polar for: QX0023

 1 1 Reynolds number fixed          Mach number fixed         

 xtrf =   1.000 (top)        1.000 (bottom)
 Mach =   0.000     Re =     0.920 e 6     Ncrit =   9.000

  alpha     CL        CD       CDp       Cm    Top Xtr Bot Xtr   Cpmin    Chinge    XCp    
 ------- -------- --------- --------- -------- ------- ------- -------- --------- ---------
 -10.000  -0.4964   0.01768   0.01263  -0.1303  0.8138  0.0206  -6.4665   0.0000   0.0000   0.0000  -0.0316
  -9.900  -0.4860   0.01747   0.01239  -0.1304  0.8126  0.0207  -6.3697   0.0000   0.0000   0.0000  -0.0374
  -9.800  -0.4755   0.01726   0.01215  -0.1304  0.8115  0.0209  -6.2736   0.0000   0.0000   0.0000  -0.0436
  -9.700  -0.4651   0.01705   0.01190  -0.1305  0.8104  0.0210  -6.1784   0.0000   0.0000   0.0000  -0.0500
  -9.600  -0.4545   0.01683   0.01166  -0.1306  0.8091  0.0212  -6.0838   0.0000   0.0000   0.0000  -0.0568
  -9.500  -0.4439   0.01661   0.01141  -0.1307  0.8077  0.0214  -5.9903   0.0000   0.0000   0.0000  -0.0640
  -9.400  -0.4333   0.01639   0.01115  -0.1307  0.8064  0.0216  -5.8978   0.0000   0.0000   0.0000  -0.0715
  -9.300  -0.4227   0.01617   0.01090  -0.1308  0.8051  0.0218  -5.8060   0.0000   0.0000   0.0000  -0.0794
  -9.200  -0.4121   0.01595   0.01064  -0.1309  0.8039  0.0219  -5.7149   0.0000   0.0000   0.0000  -0.0877
  -9.100  -0.4014   0.01574   0.01039  -0.1309  0.8028  0.0221  -5.6242   0.0000   0.0000   0.0000  -0.0965
  -9.000  -0.3907   0.01554   0.01015  -0.1310  0.8018  0.0223  -5.5338   0.0000   0.0000   0.0000  -0.1058
  -8.900  -0.3799   0.01535   0.00992  -0.1310  0.8007  0.0225  -5.4433   0.0000   0.0000   0.0000  -0.1157
  -8.800  -0.3689   0.01518   0.00972  -0.1311  0.7993  0.0227  -5.3517   0.0000   0.0000   0.0000  -0.1264
  -8.700  -0.3578   0.01504   0.00954  -0.1312  0.7980  0.0228  -5.2592   0.0000   0.0000   0.0000  -0.1379
  -8.600  -0.3467   0.01492   0.00939  -0.1313  0.7967  0.0229  -5.1661   0.0000   0.0000   0.0000  -0.1502
  -8.500  -0.3366   0.01451   0.00894  -0.1313  0.7955  0.0232  -5.0890   0.0000   0.0000   0.0000  -0.1619
  -8.400  -0.3265   0.01413   0.00853  -0.1314  0.7943  0.0236  -5.0088   0.0000   0.0000   0.0000  -0.1745
  -8.300  -0.3158   0.01391   0.00830  -0.1315  0.7933  0.0238  -4.9224   0.0000   0.0000   0.0000  -0.1888
  -8.200  -0.3049   0.01374   0.00811  -0.1315  0.7922  0.0240  -4.8386   0.0000   0.0000   0.0000  -0.2043
  -8.100  -0.2938   0.01359   0.00794  -0.1316  0.7911  0.0243  -4.7548   0.0000   0.0000   0.0000  -0.2212
  -8.000  -0.2827   0.01344   0.00778  -0.1317  0.7899  0.0245  -4.6713   0.0000   0.0000   0.0000  -0.2396
  -7.900  -0.2716   0.01329   0.00762  -0.1318  0.7886  0.0247  -4.5885   0.0000   0.0000   0.0000  -0.2595
  -7.800  -0.2605   0.01315   0.00746  -0.1319  0.7873  0.0250  -4.5067   0.0000   0.0000   0.0000  -0.2812
  -7.700  -0.2493   0.01301   0.00730  -0.1319  0.7861  0.0253  -4.4258   0.0000   0.0000   0.0000  -0.3048
  -7.600  -0.2381   0.01287   0.00713  -0.1320  0.7850  0.0255  -4.3457   0.0000   0.0000   0.0000  -0.3306
  -7.500  -0.2269   0.01273   0.00697  -0.1321  0.7839  0.0258  -4.2663   0.0000   0.0000   0.0000  -0.3590
  -7.400  -0.2157   0.01260   0.00681  -0.1321  0.7828  0.0261  -4.1874   0.0000   0.0000   0.0000  -0.3904
  -7.300  -0.2045   0.01249   0.00666  -0.1322  0.7818  0.0264  -4.1087   0.0000   0.0000   0.0000  -0.4255
  -7.200  -0.1931   0.01237   0.00652  -0.1323  0.7806  0.0266  -4.0299   0.0000   0.0000   0.0000  -0.4650
  -7.100  -0.1817   0.01227   0.00640  -0.1324  0.7793  0.0268  -3.9509   0.0000   0.0000   0.0000  -0.5096
  -7.000  -0.1710   0.01198   0.00609  -0.1324  0.7781  0.0272  -3.8816   0.0000   0.0000   0.0000  -0.5572
  -6.900  -0.1601   0.01175   0.00585  -0.1325  0.7768  0.0276  -3.8082   0.0000   0.0000   0.0000  -0.6121
  -6.800  -0.1489   0.01160   0.00570  -0.1326  0.7756  0.0280  -3.7310   0.0000   0.0000   0.0000  -0.6769
  -6.700  -0.1376   0.01149   0.00558  -0.1327  0.7745  0.0284  -3.6587   0.0000   0.0000   0.0000  -0.7530
  -6.600  -0.1262   0.01140   0.00547  -0.1328  0.7735  0.0288  -3.5863   0.0000   0.0000   0.0000  -0.8432
  -6.500  -0.1148   0.01132   0.00537  -0.1328  0.7725  0.0292  -3.5147   0.0000   0.0000   0.0000  -0.9517
  -6.400  -0.1033   0.01123   0.00527  -0.1329  0.7714  0.0297  -3.4441   0.0000   0.0000   0.0000  -1.0845
  -6.300  -0.0919   0.01113   0.00516  -0.1330  0.7701  0.0302  -3.3745   0.0000   0.0000   0.0000  -1.2508
  -6.200  -0.0804   0.01105   0.00506  -0.1331  0.7688  0.0306  -3.3055   0.0000   0.0000   0.0000  -1.4650
  -6.100  -0.0689   0.01098   0.00497  -0.1332  0.7675  0.0309  -3.2368   0.0000   0.0000   0.0000  -1.7517
  -6.000  -0.0578   0.01077   0.00475  -0.1333  0.7663  0.0315  -3.1744   0.0000   0.0000   0.0000  -2.1369
  -5.900  -0.0465   0.01060   0.00458  -0.1334  0.7652  0.0321  -3.1088   0.0000   0.0000   0.0000  -2.7130
  -5.800  -0.0351   0.01050   0.00447  -0.1334  0.7641  0.0326  -3.0406   0.0000   0.0000   0.0000  -3.6762
  -5.700  -0.0236   0.01042   0.00437  -0.1335  0.7631  0.0332  -2.9725   0.0000   0.0000   0.0000  -5.5820
  -5.600  -0.0121   0.01035   0.00428  -0.1336  0.7621  0.0338  -2.9053   0.0000   0.0000   0.0000  -11.1089
  -5.500  -0.0006   0.01026   0.00419  -0.1337  0.7608  0.0344  -2.8390   0.0000   0.0000   0.0000  -223.3502
  -5.400   0.0109   0.01019   0.00411  -0.1338  0.7595  0.0350  -2.7731   0.0000   0.0000   0.0000  12.8578
  -5.300   0.0225   0.01013   0.00403  -0.1339  0.7582  0.0354  -2.7073   0.0000   0.0000   0.0000   6.3688
  -5.200   0.0338   0.00996   0.00386  -0.1340  0.7570  0.0363  -2.6458   0.0000   0.0000   0.0000   4.3256
  -5.100   0.0453   0.00985   0.00375  -0.1341  0.7558  0.0371  -2.5811   0.0000   0.0000   0.0000   3.2945
  -5.000   0.0568   0.00978   0.00367  -0.1342  0.7547  0.0378  -2.5159   0.0000   0.0000   0.0000   2.6764
  -4.900   0.0684   0.00972   0.00360  -0.1343  0.7536  0.0386  -2.4515   0.0000   0.0000   0.0000   2.2662
  -4.800   0.0800   0.00967   0.00352  -0.1344  0.7526  0.0395  -2.3876   0.0000   0.0000   0.0000   1.9738
  -4.700   0.0916   0.00962   0.00346  -0.1345  0.7513  0.0402  -2.3276   0.0000   0.0000   0.0000   1.7551
  -4.600   0.1030   0.00948   0.00334  -0.1346  0.7500  0.0414  -2.2721   0.0000   0.0000   0.0000   1.5885
  -4.500   0.1146   0.00940   0.00327  -0.1347  0.7487  0.0424  -2.2144   0.0000   0.0000   0.0000   1.4538
  -4.400   0.1262   0.00933   0.00320  -0.1348  0.7474  0.0435  -2.1569   0.0000   0.0000   0.0000   1.3433
  -4.300   0.1378   0.00928   0.00313  -0.1349  0.7461  0.0446  -2.1003   0.0000   0.0000   0.0000   1.2512
  -4.200   0.1494   0.00922   0.00306  -0.1349  0.7449  0.0456  -2.0447   0.0000   0.0000   0.0000   1.1734
  -4.100   0.1609   0.00912   0.00296  -0.1350  0.7438  0.0470  -1.9899   0.0000   0.0000   0.0000   1.1075
  -4.000   0.1725   0.00906   0.00289  -0.1351  0.7427  0.0484  -1.9343   0.0000   0.0000   0.0000   1.0499
  -3.900   0.1841   0.00901   0.00284  -0.1352  0.7415  0.0499  -1.8793   0.0000   0.0000   0.0000   0.9995
  -3.800   0.1957   0.00894   0.00277  -0.1353  0.7401  0.0515  -1.8254   0.0000   0.0000   0.0000   0.9552
  -3.700   0.2073   0.00885   0.00271  -0.1354  0.7386  0.0535  -1.7712   0.0000   0.0000   0.0000   0.9159
  -3.600   0.2189   0.00880   0.00265  -0.1355  0.7373  0.0556  -1.7173   0.0000   0.0000   0.0000   0.8806
  -3.500   0.2305   0.00873   0.00259  -0.1356  0.7360  0.0582  -1.6643   0.0000   0.0000   0.0000   0.8490
  -3.400   0.2421   0.00867   0.00253  -0.1357  0.7347  0.0611  -1.6113   0.0000   0.0000   0.0000   0.8203
  -3.300   0.2537   0.00860   0.00247  -0.1358  0.7336  0.0645  -1.5591   0.0000   0.0000   0.0000   0.7943
  -3.100   0.2769   0.00847   0.00237  -0.1361  0.7310  0.0736  -1.4556   0.0000   0.0000   0.0000   0.7489
  -3.000   0.2884   0.00840   0.00232  -0.1362  0.7295  0.0796  -1.4045   0.0000   0.0000   0.0000   0.7290
  -2.900   0.3000   0.00832   0.00228  -0.1363  0.7280  0.0869  -1.3538   0.0000   0.0000   0.0000   0.7106
  -2.800   0.3116   0.00825   0.00224  -0.1364  0.7266  0.0951  -1.3040   0.0000   0.0000   0.0000   0.6935
  -2.700   0.3231   0.00818   0.00219  -0.1365  0.7252  0.1039  -1.2579   0.0000   0.0000   0.0000   0.6777
  -2.600   0.3347   0.00812   0.00215  -0.1366  0.7239  0.1134  -1.2122   0.0000   0.0000   0.0000   0.6630
  -2.500   0.3463   0.00806   0.00212  -0.1367  0.7227  0.1239  -1.1667   0.0000   0.0000   0.0000   0.6493
  -2.400   0.3578   0.00800   0.00209  -0.1368  0.7213  0.1348  -1.1217   0.0000   0.0000   0.0000   0.6365
  -2.300   0.3694   0.00793   0.00207  -0.1370  0.7197  0.1458  -1.0770   0.0000   0.0000   0.0000   0.6244
  -2.200   0.3810   0.00787   0.00205  -0.1371  0.7181  0.1571  -1.0327   0.0000   0.0000   0.0000   0.6131
  -2.100   0.3926   0.00781   0.00202  -0.1372  0.7166  0.1682  -0.9888   0.0000   0.0000   0.0000   0.6025
  -2.000   0.4042   0.00776   0.00200  -0.1373  0.7151  0.1791  -0.9453   0.0000   0.0000   0.0000   0.5924
  -1.900   0.4158   0.00771   0.00197  -0.1374  0.7137  0.1898  -0.9022   0.0000   0.0000   0.0000   0.5829
  -1.800   0.4273   0.00768   0.00195  -0.1375  0.7124  0.2008  -0.8595   0.0000   0.0000   0.0000   0.5739
  -1.700   0.4389   0.00763   0.00193  -0.1376  0.7109  0.2126  -0.8200   0.0000   0.0000   0.0000   0.5654
  -1.600   0.4505   0.00756   0.00192  -0.1378  0.7092  0.2258  -0.7822   0.0000   0.0000   0.0000   0.5574
  -1.500   0.4621   0.00751   0.00191  -0.1379  0.7075  0.2401  -0.7895   0.0000   0.0000   0.0000   0.5497
  -1.400   0.4737   0.00746   0.00190  -0.1380  0.7059  0.2541  -0.7968   0.0000   0.0000   0.0000   0.5424
  -1.300   0.4852   0.00741   0.00188  -0.1381  0.7044  0.2674  -0.8042   0.0000   0.0000   0.0000   0.5355
  -1.200   0.4968   0.00737   0.00186  -0.1382  0.7030  0.2817  -0.8115   0.0000   0.0000   0.0000   0.5289
  -1.100   0.5083   0.00732   0.00185  -0.1383  0.7016  0.2987  -0.8189   0.0000   0.0000   0.0000   0.5226
  -1.000   0.5199   0.00726   0.00185  -0.1385  0.6999  0.3177  -0.8264   0.0000   0.0000   0.0000   0.5165
  -0.900   0.5314   0.00720   0.00185  -0.1386  0.6981  0.3381  -0.8340   0.0000   0.0000   0.0000   0.5108
  -0.800   0.5429   0.00713   0.00185  -0.1387  0.6963  0.3594  -0.8419   0.0000   0.0000   0.0000   0.5053
  -0.700   0.5544   0.00706   0.00184  -0.1388  0.6947  0.3823  -0.8498   0.0000   0.0000   0.0000   0.5000
  -0.600   0.5659   0.00700   0.00184  -0.1389  0.6931  0.4083  -0.8579   0.0000   0.0000   0.0000   0.4950
  -0.500   0.5773   0.00694   0.00184  -0.1390  0.6916  0.4350  -0.8660   0.0000   0.0000   0.0000   0.4901
  -0.400   0.5888   0.00687   0.00185  -0.1392  0.6899  0.4625  -0.8742   0.0000   0.0000   0.0000   0.4854
  -0.300   0.6003   0.00680   0.00186  -0.1393  0.6880  0.4928  -0.8824   0.0000   0.0000   0.0000   0.4809
  -0.200   0.6117   0.00673   0.00187  -0.1394  0.6861  0.5226  -0.8906   0.0000   0.0000   0.0000   0.4766
  -0.100   0.6232   0.00667   0.00188  -0.1395  0.6844  0.5489  -0.8990   0.0000   0.0000   0.0000   0.4724
   0.000   0.6345   0.00663   0.00189  -0.1395  0.6827  0.5721  -0.9075   0.0000   0.0000   0.0000   0.4683
   0.100   0.6459   0.00660   0.00190  -0.1396  0.6811  0.5951  -0.9163   0.0000   0.0000   0.0000   0.4644
   0.200   0.6573   0.00655   0.00192  -0.1397  0.6791  0.6179  -0.9252   0.0000   0.0000   0.0000   0.4606
   0.300   0.6686   0.00650   0.00194  -0.1397  0.6771  0.6427  -0.9341   0.0000   0.0000   0.0000   0.4569
   0.400   0.6800   0.00647   0.00196  -0.1397  0.6751  0.6645  -0.9433   0.0000   0.0000   0.0000   0.4533
   0.500   0.6913   0.00646   0.00198  -0.1398  0.6732  0.6823  -0.9524   0.0000   0.0000   0.0000   0.4499
   0.700   0.7139   0.00644   0.00201  -0.1398  0.6697  0.7133  -0.9707   0.0000   0.0000   0.0000   0.4432
   0.800   0.7252   0.00642   0.00203  -0.1398  0.6675  0.7271  -0.9800   0.0000   0.0000   0.0000   0.4401
   0.900   0.7365   0.00640   0.00205  -0.1399  0.6654  0.7402  -0.9898   0.0000   0.0000   0.0000   0.4370
   1.000   0.7477   0.00639   0.00206  -0.1399  0.6633  0.7532  -0.9996   0.0000   0.0000   0.0000   0.4340
   1.100   0.7588   0.00639   0.00208  -0.1398  0.6613  0.7661  -1.0095   0.0000   0.0000   0.0000   0.4311
   1.200   0.7700   0.00639   0.00209  -0.1398  0.6594  0.7787  -1.0195   0.0000   0.0000   0.0000   0.4283
   1.300   0.7812   0.00637   0.00212  -0.1398  0.6571  0.7909  -1.0297   0.0000   0.0000   0.0000   0.4255
   1.500   0.8031   0.00635   0.00216  -0.1397  0.6526  0.8162  -1.0498   0.0000   0.0000   0.0000   0.4202
   1.600   0.8138   0.00635   0.00218  -0.1396  0.6505  0.8299  -1.0599   0.0000   0.0000   0.0000   0.4177
   1.700   0.8246   0.00635   0.00220  -0.1395  0.6484  0.8434  -1.0703   0.0000   0.0000   0.0000   0.4152
   1.800   0.8352   0.00633   0.00222  -0.1393  0.6460  0.8568  -1.0810   0.0000   0.0000   0.0000   0.4127
   1.900   0.8455   0.00631   0.00224  -0.1391  0.6435  0.8718  -1.0915   0.0000   0.0000   0.0000   0.4103
   2.000   0.8553   0.00630   0.00226  -0.1387  0.6411  0.8898  -1.1018   0.0000   0.0000   0.0000   0.4079
   2.100   0.8644   0.00629   0.00228  -0.1382  0.6390  0.9100  -1.1119   0.0000   0.0000   0.0000   0.4054
   2.200   0.8734   0.00625   0.00229  -0.1377  0.6365  0.9348  -1.1220   0.0000   0.0000   0.0000   0.4030
   2.300   0.8859   0.00621   0.00228  -0.1379  0.6338  0.9671  -1.1344   0.0000   0.0000   0.0000   0.4009
   2.400   0.9004   0.00622   0.00228  -0.1386  0.6311  1.0000  -1.1481   0.0000   0.0000   0.0000   0.3991
   2.500   0.9117   0.00626   0.00230  -0.1387  0.6287  1.0000  -1.1598   0.0000   0.0000   0.0000   0.3971
   2.600   0.9231   0.00629   0.00232  -0.1388  0.6261  1.0000  -1.1718   0.0000   0.0000   0.0000   0.3952
   2.700   0.9345   0.00632   0.00235  -0.1388  0.6232  1.0000  -1.1843   0.0000   0.0000   0.0000   0.3933
   2.800   0.9458   0.00635   0.00237  -0.1389  0.6203  1.0000  -1.1969   0.0000   0.0000   0.0000   0.3915
   2.900   0.9569   0.00640   0.00239  -0.1389  0.6177  1.0000  -1.2095   0.0000   0.0000   0.0000   0.3897
   3.000   0.9683   0.00643   0.00242  -0.1390  0.6147  1.0000  -1.2224   0.0000   0.0000   0.0000   0.3879
   3.100   0.9796   0.00647   0.00245  -0.1391  0.6115  1.0000  -1.2352   0.0000   0.0000   0.0000   0.3862
   3.200   0.9906   0.00651   0.00247  -0.1391  0.6084  1.0000  -1.2481   0.0000   0.0000   0.0000   0.3845
   3.300   1.0017   0.00656   0.00251  -0.1391  0.6055  1.0000  -1.2612   0.0000   0.0000   0.0000   0.3829
   3.400   1.0130   0.00660   0.00254  -0.1392  0.6021  1.0000  -1.2747   0.0000   0.0000   0.0000   0.3812
   3.500   1.0240   0.00664   0.00257  -0.1392  0.5987  1.0000  -1.2890   0.0000   0.0000   0.0000   0.3796
   3.600   1.0348   0.00670   0.00260  -0.1391  0.5954  1.0000  -1.3033   0.0000   0.0000   0.0000   0.3781
   3.700   1.0460   0.00674   0.00264  -0.1392  0.5916  1.0000  -1.3180   0.0000   0.0000   0.0000   0.3765
   3.800   1.0569   0.00679   0.00267  -0.1392  0.5877  1.0000  -1.3327   0.0000   0.0000   0.0000   0.3750
   3.900   1.0676   0.00685   0.00271  -0.1391  0.5840  1.0000  -1.3474   0.0000   0.0000   0.0000   0.3735
   4.000   1.0787   0.00690   0.00276  -0.1392  0.5799  1.0000  -1.3624   0.0000   0.0000   0.0000   0.3721
   4.100   1.0894   0.00696   0.00280  -0.1391  0.5759  1.0000  -1.3782   0.0000   0.0000   0.0000   0.3707
   4.200   1.1002   0.00702   0.00284  -0.1391  0.5720  1.0000  -1.3945   0.0000   0.0000   0.0000   0.3692
   4.300   1.1110   0.00707   0.00289  -0.1391  0.5676  1.0000  -1.4109   0.0000   0.0000   0.0000   0.3679
   4.500   1.1323   0.00720   0.00298  -0.1389  0.5587  1.0000  -1.4441   0.0000   0.0000   0.0000   0.3652
   4.600   1.1427   0.00728   0.00304  -0.1389  0.5538  1.0000  -1.4608   0.0000   0.0000   0.0000   0.3638
   4.700   1.1532   0.00735   0.00309  -0.1388  0.5491  1.0000  -1.4777   0.0000   0.0000   0.0000   0.3625
   4.800   1.1636   0.00742   0.00315  -0.1387  0.5439  1.0000  -1.4949   0.0000   0.0000   0.0000   0.3612
   4.900   1.1739   0.00750   0.00321  -0.1386  0.5390  1.0000  -1.5134   0.0000   0.0000   0.0000   0.3600
   5.000   1.1844   0.00758   0.00327  -0.1385  0.5337  1.0000  -1.5321   0.0000   0.0000   0.0000   0.3587
   5.100   1.1944   0.00767   0.00334  -0.1384  0.5286  1.0000  -1.5506   0.0000   0.0000   0.0000   0.3575
   5.200   1.2047   0.00775   0.00340  -0.1382  0.5228  1.0000  -1.5700   0.0000   0.0000   0.0000   0.3562
   5.300   1.2146   0.00785   0.00348  -0.1381  0.5171  1.0000  -1.5890   0.0000   0.0000   0.0000   0.3550
   5.400   1.2246   0.00794   0.00355  -0.1379  0.5107  1.0000  -1.6084   0.0000   0.0000   0.0000   0.3538
   5.500   1.2344   0.00804   0.00363  -0.1377  0.5046  1.0000  -1.6297   0.0000   0.0000   0.0000   0.3526
   5.600   1.2440   0.00816   0.00372  -0.1375  0.4981  1.0000  -1.6508   0.0000   0.0000   0.0000   0.3515
   5.700   1.2538   0.00826   0.00380  -0.1373  0.4916  1.0000  -1.6727   0.0000   0.0000   0.0000   0.3503
   5.800   1.2632   0.00838   0.00389  -0.1371  0.4852  1.0000  -1.6965   0.0000   0.0000   0.0000   0.3492
   5.900   1.2728   0.00850   0.00398  -0.1368  0.4783  1.0000  -1.7215   0.0000   0.0000   0.0000   0.3480
   6.000   1.2821   0.00862   0.00407  -0.1366  0.4714  1.0000  -1.7466   0.0000   0.0000   0.0000   0.3469
   6.100   1.2909   0.00877   0.00418  -0.1362  0.4642  1.0000  -1.7733   0.0000   0.0000   0.0000   0.3458
   6.200   1.3003   0.00889   0.00428  -0.1360  0.4567  1.0000  -1.8031   0.0000   0.0000   0.0000   0.3447
   6.300   1.3092   0.00903   0.00439  -0.1356  0.4494  1.0000  -1.8324   0.0000   0.0000   0.0000   0.3435
   6.400   1.3177   0.00919   0.00451  -0.1352  0.4419  1.0000  -1.8612   0.0000   0.0000   0.0000   0.3424
   6.500   1.3265   0.00933   0.00462  -0.1349  0.4340  1.0000  -1.8917   0.0000   0.0000   0.0000   0.3413
   6.600   1.3351   0.00949   0.00474  -0.1345  0.4263  1.0000  -1.9223   0.0000   0.0000   0.0000   0.3403
   6.700   1.3433   0.00966   0.00487  -0.1341  0.4186  1.0000  -1.9524   0.0000   0.0000   0.0000   0.3392
   6.800   1.3515   0.00982   0.00500  -0.1336  0.4108  1.0000  -1.9841   0.0000   0.0000   0.0000   0.3381
   6.900   1.3600   0.00998   0.00513  -0.1332  0.4032  1.0000  -2.0164   0.0000   0.0000   0.0000   0.3370
   7.000   1.3680   0.01015   0.00526  -0.1328  0.3959  1.0000  -2.0493   0.0000   0.0000   0.0000   0.3360
   7.200   1.3836   0.01050   0.00555  -0.1318  0.3805  1.0000  -2.1157   0.0000   0.0000   0.0000   0.3338
   7.300   1.3912   0.01068   0.00570  -0.1312  0.3729  1.0000  -2.1487   0.0000   0.0000   0.0000   0.3328
   7.400   1.3985   0.01088   0.00586  -0.1306  0.3656  1.0000  -2.1812   0.0000   0.0000   0.0000   0.3317
   7.500   1.4056   0.01105   0.00600  -0.1300  0.3583  1.0000  -2.2138   0.0000   0.0000   0.0000   0.3307
   7.600   1.4123   0.01123   0.00615  -0.1293  0.3518  1.0000  -2.2457   0.0000   0.0000   0.0000   0.3296
   7.700   1.4185   0.01143   0.00632  -0.1285  0.3453  1.0000  -2.2767   0.0000   0.0000   0.0000   0.3284
   7.800   1.4254   0.01160   0.00647  -0.1278  0.3386  1.0000  -2.3093   0.0000   0.0000   0.0000   0.3274
   7.900   1.4319   0.01181   0.00665  -0.1271  0.3322  1.0000  -2.3411   0.0000   0.0000   0.0000   0.3263
   8.100   1.4443   0.01225   0.00703  -0.1256  0.3181  1.0000  -2.4220   0.0000   0.0000   0.0000   0.3242
   8.200   1.4502   0.01248   0.00724  -0.1249  0.3111  1.0000  -2.4659   0.0000   0.0000   0.0000   0.3232
   8.300   1.4557   0.01275   0.00746  -0.1241  0.3040  1.0000  -2.5090   0.0000   0.0000   0.0000   0.3221
   8.400   1.4618   0.01299   0.00768  -0.1233  0.2968  1.0000  -2.5537   0.0000   0.0000   0.0000   0.3211
   8.500   1.4676   0.01324   0.00790  -0.1226  0.2900  1.0000  -2.5980   0.0000   0.0000   0.0000   0.3201
   8.600   1.4730   0.01353   0.00815  -0.1218  0.2832  1.0000  -2.6414   0.0000   0.0000   0.0000   0.3191
   8.700   1.4786   0.01380   0.00840  -0.1211  0.2762  1.0000  -2.6857   0.0000   0.0000   0.0000   0.3182
   8.800   1.4843   0.01408   0.00865  -0.1204  0.2694  1.0000  -2.7304   0.0000   0.0000   0.0000   0.3172
   8.900   1.4895   0.01439   0.00893  -0.1196  0.2629  1.0000  -2.7740   0.0000   0.0000   0.0000   0.3162
   9.000   1.4946   0.01470   0.00921  -0.1188  0.2560  1.0000  -2.8177   0.0000   0.0000   0.0000   0.3153
   9.100   1.5001   0.01501   0.00949  -0.1181  0.2492  1.0000  -2.8624   0.0000   0.0000   0.0000   0.3143
   9.200   1.5052   0.01534   0.00979  -0.1174  0.2427  1.0000  -2.9063   0.0000   0.0000   0.0000   0.3134
   9.300   1.5098   0.01570   0.01011  -0.1166  0.2362  1.0000  -2.9492   0.0000   0.0000   0.0000   0.3125
   9.400   1.5153   0.01601   0.01041  -0.1159  0.2298  1.0000  -2.9947   0.0000   0.0000   0.0000   0.3116
   9.500   1.5205   0.01635   0.01072  -0.1152  0.2241  1.0000  -3.0394   0.0000   0.0000   0.0000   0.3107
   9.600   1.5253   0.01672   0.01106  -0.1145  0.2183  1.0000  -3.0833   0.0000   0.0000   0.0000   0.3098
   9.700   1.5306   0.01705   0.01138  -0.1138  0.2125  1.0000  -3.1291   0.0000   0.0000   0.0000   0.3089
   9.800   1.5354   0.01743   0.01173  -0.1131  0.2069  1.0000  -3.1732   0.0000   0.0000   0.0000   0.3081
   9.900   1.5400   0.01781   0.01208  -0.1124  0.2011  1.0000  -3.2174   0.0000   0.0000   0.0000   0.3072
  10.000   1.5449   0.01818   0.01244  -0.1117  0.1954  1.0000  -3.2624   0.0000   0.0000   0.0000   0.3063
  10.100   1.5492   0.01860   0.01283  -0.1110  0.1897  1.0000  -3.3057   0.0000   0.0000   0.0000   0.3055
  10.200   1.5534   0.01902   0.01323  -0.1102  0.1837  1.0000  -3.3491   0.0000   0.0000   0.0000   0.3046
  10.300   1.5578   0.01944   0.01362  -0.1095  0.1778  1.0000  -3.3931   0.0000   0.0000   0.0000   0.3038
  10.400   1.5616   0.01989   0.01404  -0.1087  0.1720  1.0000  -3.4358   0.0000   0.0000   0.0000   0.3030
  10.600   1.5692   0.02082   0.01491  -0.1072  0.1603  1.0000  -3.5213   0.0000   0.0000   0.0000   0.3013
  10.700   1.5730   0.02129   0.01536  -0.1065  0.1549  1.0000  -3.5643   0.0000   0.0000   0.0000   0.3005
  10.800   1.5763   0.02179   0.01583  -0.1057  0.1496  1.0000  -3.6059   0.0000   0.0000   0.0000   0.2997
  10.900   1.5803   0.02225   0.01628  -0.1050  0.1443  1.0000  -3.6497   0.0000   0.0000   0.0000   0.2989
  11.000   1.5839   0.02274   0.01674  -0.1043  0.1396  1.0000  -3.6929   0.0000   0.0000   0.0000   0.2981
  11.200   1.5910   0.02373   0.01770  -0.1028  0.1300  1.0000  -3.7787   0.0000   0.0000   0.0000   0.2965
  11.300   1.5943   0.02426   0.01820  -0.1021  0.1256  1.0000  -3.8211   0.0000   0.0000   0.0000   0.2957
  11.400   1.5977   0.02478   0.01871  -0.1014  0.1211  1.0000  -3.8637   0.0000   0.0000   0.0000   0.2949
  11.500   1.6013   0.02529   0.01920  -0.1007  0.1170  1.0000  -3.9074   0.0000   0.0000   0.0000   0.2942
  11.700   1.6079   0.02634   0.02023  -0.0993  0.1091  1.0000  -3.9931   0.0000   0.0000   0.0000   0.2927
  11.800   1.6108   0.02691   0.02078  -0.0986  0.1055  1.0000  -4.0348   0.0000   0.0000   0.0000   0.2919
  11.900   1.6142   0.02744   0.02130  -0.0980  0.1018  1.0000  -4.0783   0.0000   0.0000   0.0000   0.2912
  12.000   1.6171   0.02801   0.02186  -0.0973  0.0985  1.0000  -4.1203   0.0000   0.0000   0.0000   0.2904
  12.100   1.6204   0.02856   0.02241  -0.0966  0.0950  1.0000  -4.1635   0.0000   0.0000   0.0000   0.2897
  12.200   1.6232   0.02915   0.02299  -0.0959  0.0919  1.0000  -4.2055   0.0000   0.0000   0.0000   0.2890
  12.300   1.6264   0.02971   0.02354  -0.0953  0.0887  1.0000  -4.2488   0.0000   0.0000   0.0000   0.2883
  12.400   1.6290   0.03032   0.02414  -0.0946  0.0859  1.0000  -4.2905   0.0000   0.0000   0.0000   0.2876
  12.500   1.6321   0.03089   0.02471  -0.0940  0.0830  1.0000  -4.3336   0.0000   0.0000   0.0000   0.2869
  12.600   1.6344   0.03152   0.02533  -0.0933  0.0804  1.0000  -4.3745   0.0000   0.0000   0.0000   0.2862
  12.700   1.6377   0.03210   0.02591  -0.0927  0.0778  1.0000  -4.4183   0.0000   0.0000   0.0000   0.2855
  12.800   1.6400   0.03275   0.02655  -0.0920  0.0753  1.0000  -4.4594   0.0000   0.0000   0.0000   0.2848
  12.900   1.6432   0.03334   0.02715  -0.0914  0.0731  1.0000  -4.5036   0.0000   0.0000   0.0000   0.2841
  13.000   1.6459   0.03398   0.02778  -0.0908  0.0708  1.0000  -4.5489   0.0000   0.0000   0.0000   0.2835
  13.100   1.6483   0.03464   0.02845  -0.0902  0.0688  1.0000  -4.5932   0.0000   0.0000   0.0000   0.2828
  13.200   1.6516   0.03525   0.02906  -0.0897  0.0668  1.0000  -4.6407   0.0000   0.0000   0.0000   0.2822
  13.300   1.6541   0.03592   0.02973  -0.0891  0.0648  1.0000  -4.6856   0.0000   0.0000   0.0000   0.2816
  13.400   1.6566   0.03659   0.03041  -0.0886  0.0631  1.0000  -4.7308   0.0000   0.0000   0.0000   0.2809
  13.500   1.6597   0.03723   0.03106  -0.0880  0.0613  1.0000  -4.7780   0.0000   0.0000   0.0000   0.2803
  13.600   1.6621   0.03792   0.03175  -0.0875  0.0597  1.0000  -4.8228   0.0000   0.0000   0.0000   0.2797
  13.700   1.6642   0.03864   0.03247  -0.0869  0.0582  1.0000  -4.8667   0.0000   0.0000   0.0000   0.2791
  13.800   1.6673   0.03928   0.03313  -0.0864  0.0567  1.0000  -4.9144   0.0000   0.0000   0.0000   0.2785
  13.900   1.6699   0.03998   0.03384  -0.0859  0.0552  1.0000  -4.9601   0.0000   0.0000   0.0000   0.2779
  14.000   1.6717   0.04075   0.03461  -0.0854  0.0538  1.0000  -5.0033   0.0000   0.0000   0.0000   0.2773
  14.100   1.6744   0.04145   0.03532  -0.0849  0.0526  1.0000  -5.0497   0.0000   0.0000   0.0000   0.2767
  14.200   1.6773   0.04214   0.03602  -0.0845  0.0513  1.0000  -5.0971   0.0000   0.0000   0.0000   0.2761
  14.300   1.6795   0.04290   0.03679  -0.0840  0.0501  1.0000  -5.1419   0.0000   0.0000   0.0000   0.2756
  14.400   1.6810   0.04372   0.03762  -0.0835  0.0489  1.0000  -5.1843   0.0000   0.0000   0.0000   0.2750
  14.500   1.6837   0.04444   0.03836  -0.0831  0.0479  1.0000  -5.2312   0.0000   0.0000   0.0000   0.2744
  14.600   1.6864   0.04517   0.03911  -0.0827  0.0467  1.0000  -5.2780   0.0000   0.0000   0.0000   0.2739
  14.700   1.6884   0.04597   0.03991  -0.0822  0.0456  1.0000  -5.3226   0.0000   0.0000   0.0000   0.2734
  14.800   1.6900   0.04681   0.04076  -0.0818  0.0446  1.0000  -5.3652   0.0000   0.0000   0.0000   0.2728
  14.900   1.6915   0.04765   0.04162  -0.0813  0.0436  1.0000  -5.4080   0.0000   0.0000   0.0000   0.2723
  15.000   1.6942   0.04840   0.04239  -0.0809  0.0427  1.0000  -5.4550   0.0000   0.0000   0.0000   0.2718
  15.100   1.6962   0.04921   0.04321  -0.0805  0.0417  1.0000  -5.4997   0.0000   0.0000   0.0000   0.2712
  15.200   1.6975   0.05010   0.04411  -0.0801  0.0407  1.0000  -5.5416   0.0000   0.0000   0.0000   0.2707
  15.300   1.6982   0.05105   0.04507  -0.0797  0.0398  1.0000  -5.5862   0.0000   0.0000   0.0000   0.2702
  15.400   1.7003   0.05187   0.04592  -0.0793  0.0389  1.0000  -5.6407   0.0000   0.0000   0.0000   0.2697
  15.500   1.7023   0.05272   0.04679  -0.0790  0.0380  1.0000  -5.6949   0.0000   0.0000   0.0000   0.2693
  15.600   1.7037   0.05362   0.04771  -0.0786  0.0370  1.0000  -5.7467   0.0000   0.0000   0.0000   0.2688
  15.700   1.7043   0.05462   0.04871  -0.0783  0.0361  1.0000  -5.7948   0.0000   0.0000   0.0000   0.2683
  15.800   1.7044   0.05568   0.04979  -0.0779  0.0353  1.0000  -5.8405   0.0000   0.0000   0.0000   0.2678
  15.900   1.7067   0.05651   0.05064  -0.0776  0.0344  1.0000  -5.8967   0.0000   0.0000   0.0000   0.2674
  16.000   1.7080   0.05746   0.05161  -0.0773  0.0336  1.0000  -5.9482   0.0000   0.0000   0.0000   0.2669
  16.100   1.7086   0.05848   0.05265  -0.0770  0.0327  1.0000  -5.9966   0.0000   0.0000   0.0000   0.2665
  16.200   1.7085   0.05958   0.05376  -0.0766  0.0319  1.0000  -6.0415   0.0000   0.0000   0.0000   0.2661
  16.300   1.7085   0.06067   0.05487  -0.0763  0.0311  1.0000  -6.0871   0.0000   0.0000   0.0000   0.2656
  16.400   1.7100   0.06160   0.05583  -0.0761  0.0304  1.0000  -6.1398   0.0000   0.0000   0.0000   0.2652
  16.500   1.7105   0.06265   0.05691  -0.0758  0.0296  1.0000  -6.1877   0.0000   0.0000   0.0000   0.2648
  16.600   1.7104   0.06378   0.05805  -0.0755  0.0289  1.0000  -6.2328   0.0000   0.0000   0.0000   0.2644
  16.700   1.7096   0.06499   0.05927  -0.0752  0.0282  1.0000  -6.2745   0.0000   0.0000   0.0000   0.2640
  16.800   1.7087   0.06624   0.06054  -0.0750  0.0275  1.0000  -6.3148   0.0000   0.0000   0.0000   0.2636
  16.900   1.7097   0.06726   0.06159  -0.0748  0.0269  1.0000  -6.3653   0.0000   0.0000   0.0000   0.2633
  17.000   1.7098   0.06840   0.06276  -0.0746  0.0263  1.0000  -6.4113   0.0000   0.0000   0.0000   0.2629
  17.100   1.7095   0.06959   0.06398  -0.0744  0.0257  1.0000  -6.4553   0.0000   0.0000   0.0000   0.2625
  17.200   1.7087   0.07086   0.06526  -0.0742  0.0252  1.0000  -6.4965   0.0000   0.0000   0.0000   0.2622
  17.300   1.7072   0.07221   0.06663  -0.0740  0.0247  1.0000  -6.5344   0.0000   0.0000   0.0000   0.2619
  17.500   1.7049   0.07487   0.06935  -0.0737  0.0238  1.0000  -6.6123   0.0000   0.0000   0.0000   0.2613
  17.600   1.7050   0.07604   0.07056  -0.0736  0.0235  1.0000  -6.6583   0.0000   0.0000   0.0000   0.2610
  17.700   1.7044   0.07732   0.07186  -0.0735  0.0231  1.0000  -6.7007   0.0000   0.0000   0.0000   0.2607
  17.800   1.7036   0.07861   0.07318  -0.0734  0.0227  1.0000  -6.7418   0.0000   0.0000   0.0000   0.2604
  17.900   1.7024   0.07996   0.07456  -0.0734  0.0223  1.0000  -6.7810   0.0000   0.0000   0.0000   0.2601
  18.000   1.7008   0.08136   0.07598  -0.0733  0.0220  1.0000  -6.8182   0.0000   0.0000   0.0000   0.2599
  18.100   1.6990   0.08281   0.07745  -0.0733  0.0217  1.0000  -6.8538   0.0000   0.0000   0.0000   0.2596
  18.200   1.6964   0.08436   0.07903  -0.0732  0.0214  1.0000  -6.8853   0.0000   0.0000   0.0000   0.2594
  18.300   1.6932   0.08601   0.08071  -0.0733  0.0211  1.0000  -6.9124   0.0000   0.0000   0.0000   0.2593
  18.400   1.6908   0.08757   0.08230  -0.0733  0.0208  1.0000  -6.9440   0.0000   0.0000   0.0000   0.2591
  18.500   1.6905   0.08885   0.08362  -0.0733  0.0206  1.0000  -6.9880   0.0000   0.0000   0.0000   0.2589
  18.600   1.6897   0.09021   0.08502  -0.0734  0.0203  1.0000  -7.0290   0.0000   0.0000   0.0000   0.2587
  18.700   1.6889   0.09157   0.08641  -0.0734  0.0201  1.0000  -7.0698   0.0000   0.0000   0.0000   0.2584
  18.800   1.6875   0.09302   0.08789  -0.0735  0.0199  1.0000  -7.1076   0.0000   0.0000   0.0000   0.2583
  18.900   1.6861   0.09448   0.08939  -0.0736  0.0196  1.0000  -7.1451   0.0000   0.0000   0.0000   0.2581
  19.000   1.6842   0.09600   0.09094  -0.0738  0.0194  1.0000  -7.1795   0.0000   0.0000   0.0000   0.2580
  19.100   1.6823   0.09755   0.09252  -0.0739  0.0192  1.0000  -7.2136   0.0000   0.0000   0.0000   0.2579
  19.200   1.6799   0.09915   0.09415  -0.0741  0.0190  1.0000  -7.2451   0.0000   0.0000   0.0000   0.2578
  19.300   1.6774   0.10079   0.09582  -0.0743  0.0188  1.0000  -7.2753   0.0000   0.0000   0.0000   0.2577
  19.400   1.6744   0.10248   0.09754  -0.0746  0.0186  1.0000  -7.3025   0.0000   0.0000   0.0000   0.2577
  19.500   1.6711   0.10423   0.09932  -0.0748  0.0185  1.0000  -7.3275   0.0000   0.0000   0.0000   0.2576
  19.600   1.6673   0.10605   0.10118  -0.0751  0.0183  1.0000  -7.3489   0.0000   0.0000   0.0000   0.2576
  19.700   1.6632   0.10793   0.10309  -0.0754  0.0182  1.0000  -7.3684   0.0000   0.0000   0.0000   0.2577
  19.800   1.6585   0.10993   0.10513  -0.0758  0.0180  1.0000  -7.3830   0.0000   0.0000   0.0000   0.2578
  19.900   1.6540   0.11190   0.10714  -0.0762  0.0179  1.0000  -7.3986   0.0000   0.0000   0.0000   0.2579
  20.000   1.6522   0.11350   0.10877  -0.0766  0.0178  1.0000  -7.4334   0.0000   0.0000   0.0000   0.2579


