xflr5 v6.57

 Calculated polar for: QX0123

 1 1 Reynolds number fixed          Mach number fixed         

 xtrf =   1.000 (top)        1.000 (bottom)
 Mach =   0.000     Re =     0.160 e 6     Ncrit =   9.000

  alpha     CL        CD       CDp       Cm    Top Xtr Bot Xtr   Cpmin    Chinge    XCp    
 ------- -------- --------- --------- -------- ------- ------- -------- --------- ---------
  -9.700  -0.3254   0.10873   0.10506  -0.0373  0.9989  0.0834  -1.5894   0.0000   0.0000   0.0000   0.1214
  -9.600  -0.3207   0.10699   0.10332  -0.0388  0.9976  0.0847  -1.5843   0.0000   0.0000   0.0000   0.1150
  -9.500  -0.3197   0.10480   0.10113  -0.0413  0.9961  0.0866  -1.6117   0.0000   0.0000   0.0000   0.1069
  -8.300  -0.4181   0.05395   0.04974  -0.0891  0.9670  0.0621  -2.9802   0.0000   0.0000   0.0000   0.0240
  -8.200  -0.4147   0.05065   0.04628  -0.0920  0.9652  0.0611  -3.0243   0.0000   0.0000   0.0000   0.0153
  -8.100  -0.4199   0.04760   0.04303  -0.0930  0.9607  0.0601  -3.1003   0.0000   0.0000   0.0000   0.0158
  -8.000  -0.4300   0.04103   0.03582  -0.0958  0.9571  0.0579  -3.3230   0.0000   0.0000   0.0000   0.0143
  -7.900  -0.4304   0.03850   0.03295  -0.0960  0.9537  0.0575  -3.3753   0.0000   0.0000   0.0000   0.0140
  -7.800  -0.4240   0.03709   0.03136  -0.0963  0.9511  0.0577  -3.3585   0.0000   0.0000   0.0000   0.0099
  -7.700  -0.4144   0.03575   0.02985  -0.0971  0.9494  0.0580  -3.3259   0.0000   0.0000   0.0000   0.0027
  -7.600  -0.4035   0.03447   0.02839  -0.0979  0.9481  0.0583  -3.2888   0.0000   0.0000   0.0000  -0.0060
  -7.500  -0.3910   0.03345   0.02723  -0.0989  0.9470  0.0589  -3.2519   0.0000   0.0000   0.0000  -0.0164
  -7.400  -0.3865   0.03298   0.02667  -0.0981  0.9434  0.0596  -3.2225   0.0000   0.0000   0.0000  -0.0173
  -7.300  -0.3769   0.03223   0.02578  -0.0984  0.9412  0.0607  -3.1880   0.0000   0.0000   0.0000  -0.0246
  -7.200  -0.3661   0.03128   0.02458  -0.0989  0.9396  0.0619  -3.1623   0.0000   0.0000   0.0000  -0.0340
  -7.100  -0.3545   0.03028   0.02330  -0.0995  0.9382  0.0629  -3.1408   0.0000   0.0000   0.0000  -0.0448
  -7.000  -0.3440   0.02948   0.02222  -0.0997  0.9364  0.0635  -3.1179   0.0000   0.0000   0.0000  -0.0542
  -6.900  -0.3387   0.02886   0.02145  -0.0989  0.9330  0.0638  -3.0976   0.0000   0.0000   0.0000  -0.0565
  -6.800  -0.3281   0.02793   0.02046  -0.0992  0.9312  0.0643  -3.0587   0.0000   0.0000   0.0000  -0.0668
  -6.700  -0.3158   0.02719   0.01968  -0.0996  0.9298  0.0648  -3.0097   0.0000   0.0000   0.0000  -0.0803
  -6.600  -0.3027   0.02659   0.01903  -0.1002  0.9286  0.0655  -2.9559   0.0000   0.0000   0.0000  -0.0961
  -6.500  -0.2893   0.02604   0.01843  -0.1007  0.9275  0.0663  -2.9014   0.0000   0.0000   0.0000  -0.1137
  -6.400  -0.2824   0.02572   0.01807  -0.1000  0.9244  0.0670  -2.8632   0.0000   0.0000   0.0000  -0.1200
  -6.300  -0.2727   0.02530   0.01759  -0.0999  0.9220  0.0680  -2.8205   0.0000   0.0000   0.0000  -0.1322
  -6.200  -0.2609   0.02481   0.01699  -0.1000  0.9202  0.0692  -2.7763   0.0000   0.0000   0.0000  -0.1499
  -6.100  -0.2481   0.02429   0.01632  -0.1003  0.9188  0.0706  -2.7339   0.0000   0.0000   0.0000  -0.1712
  -6.000  -0.2351   0.02377   0.01563  -0.1006  0.9176  0.0721  -2.6915   0.0000   0.0000   0.0000  -0.1956
  -5.900  -0.2256   0.02337   0.01530  -0.1004  0.9153  0.0734  -2.6397   0.0000   0.0000   0.0000  -0.2131
  -5.800  -0.2174   0.02316   0.01511  -0.1000  0.9123  0.0747  -2.5914   0.0000   0.0000   0.0000  -0.2282
  -5.700  -0.2062   0.02288   0.01480  -0.1000  0.9104  0.0766  -2.5391   0.0000   0.0000   0.0000  -0.2540
  -5.600  -0.1939   0.02255   0.01437  -0.1002  0.9088  0.0789  -2.4898   0.0000   0.0000   0.0000  -0.2864
  -5.500  -0.1812   0.02214   0.01392  -0.1004  0.9075  0.0810  -2.4375   0.0000   0.0000   0.0000  -0.3246
  -5.400  -0.1686   0.02185   0.01368  -0.1007  0.9064  0.0831  -2.3758   0.0000   0.0000   0.0000  -0.3689
  -5.300  -0.1626   0.02176   0.01358  -0.0999  0.9026  0.0850  -2.3356   0.0000   0.0000   0.0000  -0.3861
  -5.200  -0.1521   0.02156   0.01327  -0.0997  0.9004  0.0876  -2.2886   0.0000   0.0000   0.0000  -0.4286
  -5.100  -0.1406   0.02122   0.01298  -0.0998  0.8987  0.0900  -2.2380   0.0000   0.0000   0.0000  -0.4838
  -5.000  -0.1285   0.02099   0.01277  -0.0999  0.8973  0.0929  -2.1935   0.0000   0.0000   0.0000  -0.5540
  -4.900  -0.1159   0.02081   0.01248  -0.1001  0.8960  0.0969  -2.1540   0.0000   0.0000   0.0000  -0.6416
  -4.800  -0.1091   0.02069   0.01246  -0.0995  0.8926  0.0994  -2.1164   0.0000   0.0000   0.0000  -0.6908
  -4.700  -0.0993   0.02058   0.01233  -0.0993  0.8900  0.1033  -2.0768   0.0000   0.0000   0.0000  -0.7810
  -4.600  -0.0882   0.02036   0.01214  -0.0993  0.8881  0.1070  -2.0343   0.0000   0.0000   0.0000  -0.9100
  -4.500  -0.0762   0.02019   0.01196  -0.0993  0.8866  0.1114  -1.9902   0.0000   0.0000   0.0000  -1.0916
  -4.400  -0.0643   0.01995   0.01175  -0.0994  0.8853  0.1157  -1.9464   0.0000   0.0000   0.0000  -1.3414
  -4.300  -0.0566   0.01992   0.01171  -0.0988  0.8818  0.1202  -1.9119   0.0000   0.0000   0.0000  -1.5455
  -4.200  -0.0471   0.01976   0.01160  -0.0986  0.8791  0.1248  -1.8718   0.0000   0.0000   0.0000  -1.9031
  -4.100  -0.0359   0.01958   0.01141  -0.0985  0.8772  0.1309  -1.8309   0.0000   0.0000   0.0000  -2.5648
  -4.000  -0.0243   0.01938   0.01121  -0.0985  0.8757  0.1373  -1.7881   0.0000   0.0000   0.0000  -3.9016
  -3.900  -0.0128   0.01913   0.01103  -0.0985  0.8744  0.1436  -1.7448   0.0000   0.0000   0.0000  -7.6257
  -3.800  -0.0051   0.01905   0.01099  -0.0980  0.8709  0.1493  -1.7103   0.0000   0.0000   0.0000  -19.4149
  -3.700   0.0045   0.01891   0.01088  -0.0977  0.8682  0.1563  -1.6716   0.0000   0.0000   0.0000  22.4996
  -3.600   0.0153   0.01874   0.01075  -0.0976  0.8663  0.1643  -1.6297   0.0000   0.0000   0.0000   6.7622
  -3.500   0.0267   0.01856   0.01060  -0.0975  0.8647  0.1730  -1.5861   0.0000   0.0000   0.0000   3.9839
  -3.400   0.0383   0.01838   0.01046  -0.0975  0.8634  0.1827  -1.5418   0.0000   0.0000   0.0000   2.8540
  -3.300   0.0464   0.01835   0.01048  -0.0971  0.8599  0.1918  -1.5048   0.0000   0.0000   0.0000   2.3879
  -3.200   0.0560   0.01825   0.01042  -0.0969  0.8571  0.2028  -1.4646   0.0000   0.0000   0.0000   2.0150
  -3.100   0.0668   0.01808   0.01032  -0.0967  0.8551  0.2148  -1.4218   0.0000   0.0000   0.0000   1.7279
  -3.000   0.0781   0.01791   0.01020  -0.0966  0.8535  0.2287  -1.3781   0.0000   0.0000   0.0000   1.5123
  -2.900   0.0894   0.01772   0.01008  -0.0965  0.8522  0.2437  -1.3342   0.0000   0.0000   0.0000   1.3504
  -2.800   0.0974   0.01770   0.01013  -0.0962  0.8485  0.2581  -1.2977   0.0000   0.0000   0.0000   1.2551
  -2.700   0.1071   0.01758   0.01010  -0.0960  0.8457  0.2756  -1.2577   0.0000   0.0000   0.0000   1.1618
  -2.600   0.1177   0.01741   0.01001  -0.0958  0.8438  0.2965  -1.2157   0.0000   0.0000   0.0000   1.0774
  -2.500   0.1287   0.01720   0.00991  -0.0956  0.8422  0.3203  -1.1730   0.0000   0.0000   0.0000   1.0050
  -2.400   0.1397   0.01699   0.00981  -0.0955  0.8409  0.3469  -1.1305   0.0000   0.0000   0.0000   0.9438
  -2.300   0.1474   0.01695   0.00991  -0.0951  0.8367  0.3726  -1.0953   0.0000   0.0000   0.0000   0.9046
  -2.200   0.1570   0.01679   0.00988  -0.0948  0.8341  0.4045  -1.0561   0.0000   0.0000   0.0000   0.8623
  -2.100   0.1671   0.01657   0.00983  -0.0945  0.8322  0.4419  -1.0159   0.0000   0.0000   0.0000   0.8228
  -2.000   0.1774   0.01633   0.00976  -0.0941  0.8307  0.4845  -0.9754   0.0000   0.0000   0.0000   0.7871
  -1.900   0.1874   0.01610   0.00971  -0.0935  0.8293  0.5314  -0.9354   0.0000   0.0000   0.0000   0.7551
  -1.800   0.1942   0.01612   0.00990  -0.0929  0.8247  0.5733  -0.9026   0.0000   0.0000   0.0000   0.7339
  -1.700   0.2031   0.01598   0.00993  -0.0922  0.8222  0.6169  -0.8654   0.0000   0.0000   0.0000   0.7089
  -1.600   0.2124   0.01583   0.00992  -0.0914  0.8204  0.6583  -0.8274   0.0000   0.0000   0.0000   0.6846
  -1.500   0.2219   0.01571   0.00988  -0.0906  0.8190  0.6959  -0.7891   0.0000   0.0000   0.0000   0.6619
  -1.400   0.2298   0.01570   0.00997  -0.0897  0.8160  0.7259  -0.7600   0.0000   0.0000   0.0000   0.6436
  -1.300   0.2375   0.01573   0.01006  -0.0888  0.8124  0.7535  -0.7359   0.0000   0.0000   0.0000   0.6268
  -1.200   0.2462   0.01566   0.01005  -0.0878  0.8103  0.7788  -0.7103   0.0000   0.0000   0.0000   0.6093
  -1.100   0.2553   0.01558   0.01000  -0.0868  0.8086  0.8021  -0.6844   0.0000   0.0000   0.0000   0.5925
  -1.000   0.2645   0.01549   0.00994  -0.0858  0.8072  0.8237  -0.6584   0.0000   0.0000   0.0000   0.5765
  -0.900   0.2713   0.01559   0.01007  -0.0849  0.8032  0.8434  -0.6362   0.0000   0.0000   0.0000   0.5644
  -0.800   0.2797   0.01558   0.01008  -0.0839  0.8003  0.8628  -0.6250   0.0000   0.0000   0.0000   0.5514
  -0.700   0.2894   0.01551   0.01002  -0.0831  0.7984  0.8820  -0.6332   0.0000   0.0000   0.0000   0.5380
  -0.600   0.3005   0.01542   0.00991  -0.0824  0.7968  0.9006  -0.6423   0.0000   0.0000   0.0000   0.5251
  -0.500   0.3135   0.01531   0.00978  -0.0822  0.7956  0.9191  -0.6526   0.0000   0.0000   0.0000   0.5126
  -0.400   0.3264   0.01541   0.00989  -0.0825  0.7912  0.9374  -0.6618   0.0000   0.0000   0.0000   0.5029
  -0.300   0.3446   0.01535   0.00980  -0.0836  0.7889  0.9542  -0.6746   0.0000   0.0000   0.0000   0.4923
  -0.200   0.3661   0.01524   0.00966  -0.0853  0.7872  0.9686  -0.6901   0.0000   0.0000   0.0000   0.4825
  -0.100   0.3889   0.01511   0.00947  -0.0872  0.7858  0.9805  -0.7071   0.0000   0.0000   0.0000   0.4737
   0.000   0.4133   0.01496   0.00927  -0.0896  0.7846  0.9903  -0.7256   0.0000   0.0000   0.0000   0.4659
   0.100   0.4384   0.01495   0.00923  -0.0925  0.7814  0.9997  -0.7440   0.0000   0.0000   0.0000   0.4599
   0.200   0.4459   0.01497   0.00922  -0.0920  0.7777  1.0000  -0.7520   0.0000   0.0000   0.0000   0.4551
   0.300   0.4546   0.01490   0.00911  -0.0915  0.7754  1.0000  -0.7610   0.0000   0.0000   0.0000   0.4499
   0.400   0.4641   0.01481   0.00897  -0.0911  0.7736  1.0000  -0.7708   0.0000   0.0000   0.0000   0.4446
   0.500   0.4709   0.01489   0.00903  -0.0905  0.7695  1.0000  -0.7783   0.0000   0.0000   0.0000   0.4404
   0.600   0.4793   0.01489   0.00900  -0.0900  0.7661  1.0000  -0.7870   0.0000   0.0000   0.0000   0.4359
   0.700   0.4892   0.01482   0.00889  -0.0896  0.7639  1.0000  -0.7969   0.0000   0.0000   0.0000   0.4312
   0.800   0.4999   0.01473   0.00874  -0.0893  0.7622  1.0000  -0.8075   0.0000   0.0000   0.0000   0.4265
   0.900   0.5076   0.01483   0.00884  -0.0889  0.7578  1.0000  -0.8157   0.0000   0.0000   0.0000   0.4228
   1.000   0.5173   0.01482   0.00879  -0.0886  0.7547  1.0000  -0.8261   0.0000   0.0000   0.0000   0.4188
   1.100   0.5282   0.01474   0.00867  -0.0883  0.7526  1.0000  -0.8376   0.0000   0.0000   0.0000   0.4146
   1.200   0.5397   0.01463   0.00851  -0.0882  0.7509  1.0000  -0.8495   0.0000   0.0000   0.0000   0.4106
   1.300   0.5478   0.01475   0.00863  -0.0878  0.7460  1.0000  -0.8585   0.0000   0.0000   0.0000   0.4074
   1.400   0.5584   0.01469   0.00855  -0.0875  0.7431  1.0000  -0.8697   0.0000   0.0000   0.0000   0.4038
   1.500   0.5699   0.01459   0.00840  -0.0874  0.7410  1.0000  -0.8819   0.0000   0.0000   0.0000   0.4001
   1.600   0.5803   0.01457   0.00835  -0.0871  0.7378  1.0000  -0.8949   0.0000   0.0000   0.0000   0.3969
   1.700   0.5899   0.01460   0.00837  -0.0868  0.7336  1.0000  -0.9073   0.0000   0.0000   0.0000   0.3938
   1.800   0.6012   0.01451   0.00825  -0.0867  0.7310  1.0000  -0.9215   0.0000   0.0000   0.0000   0.3906
   1.900   0.6132   0.01439   0.00808  -0.0865  0.7290  1.0000  -0.9362   0.0000   0.0000   0.0000   0.3875
   2.000   0.6221   0.01447   0.00817  -0.0862  0.7240  1.0000  -0.9484   0.0000   0.0000   0.0000   0.3848
   2.100   0.6332   0.01440   0.00807  -0.0860  0.7209  1.0000  -0.9629   0.0000   0.0000   0.0000   0.3820
   2.200   0.6451   0.01429   0.00792  -0.0859  0.7186  1.0000  -0.9783   0.0000   0.0000   0.0000   0.3791
   2.300   0.6548   0.01433   0.00796  -0.0856  0.7141  1.0000  -0.9914   0.0000   0.0000   0.0000   0.3766
   2.400   0.6657   0.01428   0.00790  -0.0854  0.7105  1.0000  -1.0063   0.0000   0.0000   0.0000   0.3741
   2.500   0.6775   0.01418   0.00775  -0.0853  0.7079  1.0000  -1.0223   0.0000   0.0000   0.0000   0.3716
   2.600   0.6876   0.01421   0.00778  -0.0851  0.7036  1.0000  -1.0364   0.0000   0.0000   0.0000   0.3693
   2.700   0.6983   0.01418   0.00774  -0.0849  0.6998  1.0000  -1.0513   0.0000   0.0000   0.0000   0.3670
   2.800   0.7102   0.01410   0.00761  -0.0848  0.6971  1.0000  -1.0674   0.0000   0.0000   0.0000   0.3647
   2.900   0.7203   0.01413   0.00764  -0.0846  0.6927  1.0000  -1.0817   0.0000   0.0000   0.0000   0.3626
   3.000   0.7311   0.01412   0.00761  -0.0844  0.6889  1.0000  -1.0977   0.0000   0.0000   0.0000   0.3605
   3.100   0.7430   0.01404   0.00749  -0.0843  0.6861  1.0000  -1.1152   0.0000   0.0000   0.0000   0.3585
   3.200   0.7529   0.01408   0.00754  -0.0841  0.6813  1.0000  -1.1305   0.0000   0.0000   0.0000   0.3565
   3.300   0.7640   0.01405   0.00749  -0.0839  0.6774  1.0000  -1.1473   0.0000   0.0000   0.0000   0.3546
   3.400   0.7761   0.01396   0.00735  -0.0839  0.6746  1.0000  -1.1651   0.0000   0.0000   0.0000   0.3527
   3.500   0.7855   0.01404   0.00748  -0.0836  0.6689  1.0000  -1.1818   0.0000   0.0000   0.0000   0.3509
   3.600   0.7971   0.01398   0.00739  -0.0835  0.6653  1.0000  -1.2011   0.0000   0.0000   0.0000   0.3491
   3.700   0.8075   0.01400   0.00740  -0.0833  0.6604  1.0000  -1.2192   0.0000   0.0000   0.0000   0.3474
   3.800   0.8183   0.01398   0.00736  -0.0831  0.6557  1.0000  -1.2379   0.0000   0.0000   0.0000   0.3457
   3.900   0.8295   0.01395   0.00729  -0.0829  0.6515  1.0000  -1.2571   0.0000   0.0000   0.0000   0.3440
   4.000   0.8396   0.01397   0.00732  -0.0827  0.6459  1.0000  -1.2751   0.0000   0.0000   0.0000   0.3424
   4.100   0.8515   0.01391   0.00720  -0.0826  0.6421  1.0000  -1.2952   0.0000   0.0000   0.0000   0.3408
   4.200   0.8609   0.01398   0.00729  -0.0823  0.6357  1.0000  -1.3144   0.0000   0.0000   0.0000   0.3393
   4.300   0.8726   0.01393   0.00719  -0.0822  0.6315  1.0000  -1.3368   0.0000   0.0000   0.0000   0.3378
   4.400   0.8822   0.01400   0.00727  -0.0819  0.6253  1.0000  -1.3573   0.0000   0.0000   0.0000   0.3363
   4.500   0.8937   0.01398   0.00720  -0.0818  0.6210  1.0000  -1.3802   0.0000   0.0000   0.0000   0.3349
   4.600   0.9034   0.01405   0.00729  -0.0815  0.6148  1.0000  -1.4009   0.0000   0.0000   0.0000   0.3335
   4.700   0.9146   0.01405   0.00724  -0.0814  0.6102  1.0000  -1.4238   0.0000   0.0000   0.0000   0.3321
   4.800   0.9244   0.01412   0.00733  -0.0811  0.6039  1.0000  -1.4462   0.0000   0.0000   0.0000   0.3308
   4.900   0.9356   0.01413   0.00729  -0.0810  0.5992  1.0000  -1.4717   0.0000   0.0000   0.0000   0.3295
   5.000   0.9453   0.01421   0.00738  -0.0807  0.5927  1.0000  -1.4950   0.0000   0.0000   0.0000   0.3282
   5.100   0.9564   0.01423   0.00735  -0.0806  0.5879  1.0000  -1.5206   0.0000   0.0000   0.0000   0.3269
   5.200   0.9660   0.01431   0.00745  -0.0803  0.5811  1.0000  -1.5439   0.0000   0.0000   0.0000   0.3257
   5.300   0.9765   0.01437   0.00752  -0.0801  0.5755  1.0000  -1.5688   0.0000   0.0000   0.0000   0.3245
   5.400   0.9865   0.01444   0.00759  -0.0799  0.5690  1.0000  -1.5937   0.0000   0.0000   0.0000   0.3233
   5.500   0.9966   0.01451   0.00764  -0.0796  0.5627  1.0000  -1.6198   0.0000   0.0000   0.0000   0.3221
   5.600   1.0069   0.01458   0.00767  -0.0794  0.5566  1.0000  -1.6465   0.0000   0.0000   0.0000   0.3209
   5.700   1.0165   0.01467   0.00777  -0.0791  0.5496  1.0000  -1.6722   0.0000   0.0000   0.0000   0.3198
   5.800   1.0268   0.01475   0.00780  -0.0789  0.5436  1.0000  -1.6991   0.0000   0.0000   0.0000   0.3186
   5.900   1.0363   0.01485   0.00789  -0.0786  0.5363  1.0000  -1.7256   0.0000   0.0000   0.0000   0.3175
   6.000   1.0459   0.01495   0.00798  -0.0783  0.5292  1.0000  -1.7558   0.0000   0.0000   0.0000   0.3164
   6.200   1.0651   0.01517   0.00814  -0.0777  0.5150  1.0000  -1.8178   0.0000   0.0000   0.0000   0.3143
   6.300   1.0746   0.01528   0.00824  -0.0774  0.5078  1.0000  -1.8487   0.0000   0.0000   0.0000   0.3132
   6.400   1.0843   0.01540   0.00830  -0.0771  0.5011  1.0000  -1.8805   0.0000   0.0000   0.0000   0.3122
   6.500   1.0932   0.01553   0.00844  -0.0768  0.4932  1.0000  -1.9112   0.0000   0.0000   0.0000   0.3111
   6.600   1.1024   0.01567   0.00856  -0.0764  0.4858  1.0000  -1.9442   0.0000   0.0000   0.0000   0.3101
   6.700   1.1118   0.01581   0.00864  -0.0761  0.4790  1.0000  -1.9806   0.0000   0.0000   0.0000   0.3091
   6.800   1.1206   0.01595   0.00879  -0.0757  0.4708  1.0000  -2.0201   0.0000   0.0000   0.0000   0.3081
   6.900   1.1294   0.01610   0.00893  -0.0754  0.4631  1.0000  -2.0603   0.0000   0.0000   0.0000   0.3071
   7.000   1.1383   0.01626   0.00904  -0.0750  0.4558  1.0000  -2.1009   0.0000   0.0000   0.0000   0.3061
   7.100   1.1469   0.01642   0.00918  -0.0746  0.4479  1.0000  -2.1410   0.0000   0.0000   0.0000   0.3051
   7.200   1.1553   0.01659   0.00934  -0.0742  0.4397  1.0000  -2.1809   0.0000   0.0000   0.0000   0.3042
   7.300   1.1637   0.01677   0.00949  -0.0738  0.4321  1.0000  -2.2212   0.0000   0.0000   0.0000   0.3032
   7.400   1.1721   0.01696   0.00969  -0.0733  0.4247  1.0000  -2.2617   0.0000   0.0000   0.0000   0.3022
   7.500   1.1801   0.01714   0.00987  -0.0729  0.4163  1.0000  -2.3013   0.0000   0.0000   0.0000   0.3013
   7.600   1.1881   0.01734   0.01005  -0.0724  0.4082  1.0000  -2.3437   0.0000   0.0000   0.0000   0.3003
   7.700   1.1960   0.01754   0.01023  -0.0719  0.4006  1.0000  -2.3892   0.0000   0.0000   0.0000   0.2994
   7.800   1.2037   0.01776   0.01040  -0.0714  0.3929  1.0000  -2.4347   0.0000   0.0000   0.0000   0.2985
   7.900   1.2112   0.01797   0.01061  -0.0709  0.3845  1.0000  -2.4796   0.0000   0.0000   0.0000   0.2975
   8.000   1.2187   0.01820   0.01081  -0.0704  0.3766  1.0000  -2.5246   0.0000   0.0000   0.0000   0.2966
   8.100   1.2260   0.01844   0.01101  -0.0698  0.3692  1.0000  -2.5697   0.0000   0.0000   0.0000   0.2957
   8.200   1.2331   0.01867   0.01122  -0.0693  0.3614  1.0000  -2.6144   0.0000   0.0000   0.0000   0.2947
   8.300   1.2401   0.01891   0.01145  -0.0687  0.3534  1.0000  -2.6589   0.0000   0.0000   0.0000   0.2938
   8.400   1.2469   0.01917   0.01168  -0.0681  0.3460  1.0000  -2.7034   0.0000   0.0000   0.0000   0.2929
   8.500   1.2535   0.01944   0.01190  -0.0675  0.3391  1.0000  -2.7477   0.0000   0.0000   0.0000   0.2920
   8.600   1.2600   0.01970   0.01216  -0.0669  0.3311  1.0000  -2.7915   0.0000   0.0000   0.0000   0.2910
   8.700   1.2664   0.01997   0.01242  -0.0662  0.3237  1.0000  -2.8351   0.0000   0.0000   0.0000   0.2901
   8.800   1.2723   0.02028   0.01266  -0.0656  0.3171  1.0000  -2.8784   0.0000   0.0000   0.0000   0.2892
   8.900   1.2782   0.02055   0.01294  -0.0649  0.3094  1.0000  -2.9212   0.0000   0.0000   0.0000   0.2883
   9.000   1.2840   0.02085   0.01322  -0.0642  0.3023  1.0000  -2.9639   0.0000   0.0000   0.0000   0.2873
   9.100   1.2893   0.02117   0.01349  -0.0634  0.2959  1.0000  -3.0059   0.0000   0.0000   0.0000   0.2864
   9.200   1.2946   0.02147   0.01379  -0.0627  0.2886  1.0000  -3.0475   0.0000   0.0000   0.0000   0.2855
   9.300   1.2992   0.02178   0.01409  -0.0618  0.2821  1.0000  -3.0877   0.0000   0.0000   0.0000   0.2845
   9.400   1.3033   0.02212   0.01437  -0.0609  0.2762  1.0000  -3.1268   0.0000   0.0000   0.0000   0.2835
   9.500   1.3078   0.02244   0.01471  -0.0600  0.2694  1.0000  -3.1666   0.0000   0.0000   0.0000   0.2825
   9.600   1.3119   0.02280   0.01508  -0.0592  0.2637  1.0000  -3.2060   0.0000   0.0000   0.0000   0.2815
   9.700   1.3161   0.02316   0.01543  -0.0584  0.2575  1.0000  -3.2454   0.0000   0.0000   0.0000   0.2806
   9.800   1.3204   0.02354   0.01580  -0.0576  0.2515  1.0000  -3.2849   0.0000   0.0000   0.0000   0.2797
   9.900   1.3243   0.02394   0.01617  -0.0568  0.2460  1.0000  -3.3238   0.0000   0.0000   0.0000   0.2788
  10.000   1.3286   0.02433   0.01656  -0.0560  0.2400  1.0000  -3.3634   0.0000   0.0000   0.0000   0.2779
  10.100   1.3322   0.02477   0.01695  -0.0552  0.2351  1.0000  -3.4019   0.0000   0.0000   0.0000   0.2771
  10.200   1.3364   0.02516   0.01737  -0.0545  0.2290  1.0000  -3.4411   0.0000   0.0000   0.0000   0.2762
  10.300   1.3399   0.02563   0.01778  -0.0537  0.2243  1.0000  -3.4794   0.0000   0.0000   0.0000   0.2754
  10.400   1.3439   0.02605   0.01824  -0.0530  0.2185  1.0000  -3.5182   0.0000   0.0000   0.0000   0.2746
  10.500   1.3473   0.02653   0.01867  -0.0523  0.2139  1.0000  -3.5561   0.0000   0.0000   0.0000   0.2738
  10.600   1.3511   0.02698   0.01915  -0.0516  0.2083  1.0000  -3.5945   0.0000   0.0000   0.0000   0.2730
  10.700   1.3544   0.02748   0.01961  -0.0509  0.2037  1.0000  -3.6320   0.0000   0.0000   0.0000   0.2722
  10.800   1.3579   0.02795   0.02011  -0.0502  0.1984  1.0000  -3.6698   0.0000   0.0000   0.0000   0.2714
  10.900   1.3610   0.02848   0.02060  -0.0495  0.1940  1.0000  -3.7068   0.0000   0.0000   0.0000   0.2706
  11.000   1.3644   0.02897   0.02112  -0.0488  0.1890  1.0000  -3.7443   0.0000   0.0000   0.0000   0.2699
  11.100   1.3672   0.02953   0.02163  -0.0481  0.1850  1.0000  -3.7807   0.0000   0.0000   0.0000   0.2691
  11.200   1.3705   0.03005   0.02219  -0.0475  0.1800  1.0000  -3.8176   0.0000   0.0000   0.0000   0.2684
  11.300   1.3730   0.03065   0.02272  -0.0468  0.1763  1.0000  -3.8533   0.0000   0.0000   0.0000   0.2677
  11.400   1.3763   0.03118   0.02332  -0.0462  0.1713  1.0000  -3.8899   0.0000   0.0000   0.0000   0.2670
  11.500   1.3786   0.03179   0.02388  -0.0456  0.1677  1.0000  -3.9252   0.0000   0.0000   0.0000   0.2663
  11.600   1.3817   0.03237   0.02449  -0.0450  0.1632  1.0000  -3.9609   0.0000   0.0000   0.0000   0.2656
  11.700   1.3841   0.03299   0.02509  -0.0444  0.1595  1.0000  -3.9959   0.0000   0.0000   0.0000   0.2649
  11.800   1.3867   0.03362   0.02572  -0.0438  0.1556  1.0000  -4.0308   0.0000   0.0000   0.0000   0.2642
  11.900   1.3892   0.03425   0.02636  -0.0432  0.1518  1.0000  -4.0654   0.0000   0.0000   0.0000   0.2636
  12.000   1.3913   0.03492   0.02701  -0.0426  0.1486  1.0000  -4.0996   0.0000   0.0000   0.0000   0.2629
  12.100   1.3939   0.03556   0.02772  -0.0420  0.1445  1.0000  -4.1334   0.0000   0.0000   0.0000   0.2623
  12.200   1.3959   0.03625   0.02837  -0.0414  0.1414  1.0000  -4.1670   0.0000   0.0000   0.0000   0.2616
  12.300   1.3982   0.03693   0.02908  -0.0409  0.1379  1.0000  -4.1999   0.0000   0.0000   0.0000   0.2610
  12.400   1.4002   0.03763   0.02979  -0.0403  0.1345  1.0000  -4.2328   0.0000   0.0000   0.0000   0.2604
  12.500   1.4020   0.03835   0.03045  -0.0398  0.1318  1.0000  -4.2660   0.0000   0.0000   0.0000   0.2598
  12.600   1.4041   0.03907   0.03125  -0.0393  0.1282  1.0000  -4.3002   0.0000   0.0000   0.0000   0.2592
  12.700   1.4058   0.03980   0.03197  -0.0388  0.1254  1.0000  -4.3353   0.0000   0.0000   0.0000   0.2586
  12.800   1.4076   0.04056   0.03273  -0.0382  0.1226  1.0000  -4.3697   0.0000   0.0000   0.0000   0.2580
  12.900   1.4093   0.04133   0.03354  -0.0378  0.1194  1.0000  -4.4030   0.0000   0.0000   0.0000   0.2574
  13.000   1.4107   0.04210   0.03428  -0.0373  0.1170  1.0000  -4.4375   0.0000   0.0000   0.0000   0.2569
  13.100   1.4123   0.04290   0.03510  -0.0368  0.1142  1.0000  -4.4701   0.0000   0.0000   0.0000   0.2563
  13.200   1.4137   0.04371   0.03594  -0.0364  0.1115  1.0000  -4.5024   0.0000   0.0000   0.0000   0.2558
  13.300   1.4151   0.04451   0.03670  -0.0359  0.1093  1.0000  -4.5368   0.0000   0.0000   0.0000   0.2552
  13.400   1.4164   0.04536   0.03758  -0.0355  0.1067  1.0000  -4.5677   0.0000   0.0000   0.0000   0.2547
  13.500   1.4176   0.04621   0.03847  -0.0350  0.1042  1.0000  -4.5988   0.0000   0.0000   0.0000   0.2542
  13.600   1.4190   0.04702   0.03924  -0.0346  0.1021  1.0000  -4.6329   0.0000   0.0000   0.0000   0.2537
  13.700   1.4202   0.04790   0.04015  -0.0342  0.0999  1.0000  -4.6632   0.0000   0.0000   0.0000   0.2531
  13.800   1.4212   0.04879   0.04109  -0.0338  0.0976  1.0000  -4.6928   0.0000   0.0000   0.0000   0.2527
  13.900   1.4226   0.04963   0.04190  -0.0334  0.0957  1.0000  -4.7262   0.0000   0.0000   0.0000   0.2522
  14.000   1.4242   0.05047   0.04272  -0.0330  0.0938  1.0000  -4.7591   0.0000   0.0000   0.0000   0.2517
  14.100   1.4247   0.05145   0.04378  -0.0327  0.0917  1.0000  -4.7850   0.0000   0.0000   0.0000   0.2512
  14.200   1.4259   0.05234   0.04466  -0.0324  0.0898  1.0000  -4.8166   0.0000   0.0000   0.0000   0.2508
  14.300   1.4283   0.05309   0.04535  -0.0320  0.0883  1.0000  -4.8546   0.0000   0.0000   0.0000   0.2503
  14.400   1.4286   0.05412   0.04649  -0.0317  0.0865  1.0000  -4.8787   0.0000   0.0000   0.0000   0.2498
  14.500   1.4294   0.05510   0.04752  -0.0314  0.0847  1.0000  -4.9060   0.0000   0.0000   0.0000   0.2494
  14.600   1.4311   0.05596   0.04836  -0.0311  0.0832  1.0000  -4.9395   0.0000   0.0000   0.0000   0.2490
  14.700   1.4349   0.05659   0.04890  -0.0307  0.0818  1.0000  -4.9828   0.0000   0.0000   0.0000   0.2485
  14.800   1.4343   0.05776   0.05020  -0.0305  0.0803  1.0000  -5.0010   0.0000   0.0000   0.0000   0.2481
  14.900   1.4352   0.05877   0.05126  -0.0303  0.0788  1.0000  -5.0277   0.0000   0.0000   0.0000   0.2477
  15.000   1.4372   0.05962   0.05211  -0.0300  0.0775  1.0000  -5.0642   0.0000   0.0000   0.0000   0.2473
  15.100   1.4415   0.06022   0.05262  -0.0296  0.0763  1.0000  -5.1134   0.0000   0.0000   0.0000   0.2468
  15.200   1.4423   0.06125   0.05372  -0.0294  0.0751  1.0000  -5.1417   0.0000   0.0000   0.0000   0.2464
  15.300   1.4425   0.06237   0.05493  -0.0292  0.0739  1.0000  -5.1672   0.0000   0.0000   0.0000   0.2461
  15.400   1.4440   0.06333   0.05592  -0.0290  0.0727  1.0000  -5.2005   0.0000   0.0000   0.0000   0.2457
  15.500   1.4473   0.06406   0.05663  -0.0287  0.0716  1.0000  -5.2437   0.0000   0.0000   0.0000   0.2453
  15.600   1.4548   0.06432   0.05675  -0.0282  0.0705  1.0000  -5.3075   0.0000   0.0000   0.0000   0.2446
  15.700   1.4528   0.06570   0.05828  -0.0281  0.0696  1.0000  -5.3211   0.0000   0.0000   0.0000   0.2444
  15.800   1.4527   0.06689   0.05956  -0.0280  0.0686  1.0000  -5.3442   0.0000   0.0000   0.0000   0.2441
  15.900   1.4538   0.06792   0.06063  -0.0278  0.0677  1.0000  -5.3749   0.0000   0.0000   0.0000   0.2437
  16.000   1.4565   0.06875   0.06147  -0.0276  0.0667  1.0000  -5.4147   0.0000   0.0000   0.0000   0.2434
  16.100   1.4628   0.06914   0.06177  -0.0273  0.0658  1.0000  -5.4732   0.0000   0.0000   0.0000   0.2428
  16.200   1.4664   0.06991   0.06255  -0.0270  0.0650  1.0000  -5.5145   0.0000   0.0000   0.0000   0.2424
  16.300   1.4644   0.07134   0.06410  -0.0270  0.0642  1.0000  -5.5275   0.0000   0.0000   0.0000   0.2422
  16.400   1.4638   0.07261   0.06546  -0.0269  0.0635  1.0000  -5.5484   0.0000   0.0000   0.0000   0.2419
  16.500   1.4648   0.07368   0.06658  -0.0268  0.0627  1.0000  -5.5777   0.0000   0.0000   0.0000   0.2417
  16.600   1.4671   0.07458   0.06752  -0.0267  0.0620  1.0000  -5.6150   0.0000   0.0000   0.0000   0.2413
  16.700   1.4722   0.07513   0.06803  -0.0264  0.0612  1.0000  -5.6672   0.0000   0.0000   0.0000   0.2409
  16.800   1.4819   0.07518   0.06799  -0.0258  0.0604  1.0000  -5.7395   0.0000   0.0000   0.0000   0.2402
  16.900   1.4783   0.07684   0.06978  -0.0260  0.0600  1.0000  -5.7449   0.0000   0.0000   0.0000   0.2401
  17.000   1.4759   0.07837   0.07143  -0.0261  0.0595  1.0000  -5.7616   0.0000   0.0000   0.0000   0.2399
  17.100   1.4748   0.07977   0.07291  -0.0262  0.0589  1.0000  -5.7849   0.0000   0.0000   0.0000   0.2398
  17.200   1.4743   0.08107   0.07428  -0.0262  0.0584  1.0000  -5.8129   0.0000   0.0000   0.0000   0.2396
  17.300   1.4751   0.08221   0.07547  -0.0262  0.0579  1.0000  -5.8481   0.0000   0.0000   0.0000   0.2394
  17.400   1.4776   0.08313   0.07641  -0.0261  0.0573  1.0000  -5.8938   0.0000   0.0000   0.0000   0.2391
  17.500   1.4829   0.08368   0.07694  -0.0259  0.0567  1.0000  -5.9564   0.0000   0.0000   0.0000   0.2386
  17.600   1.4964   0.08326   0.07639  -0.0251  0.0560  1.0000  -6.0648   0.0000   0.0000   0.0000   0.2378
  17.700   1.4902   0.08528   0.07856  -0.0255  0.0557  1.0000  -6.0595   0.0000   0.0000   0.0000   0.2379
  17.800   1.4846   0.08727   0.08068  -0.0260  0.0554  1.0000  -6.0570   0.0000   0.0000   0.0000   0.2380
  17.900   1.4796   0.08922   0.08275  -0.0265  0.0551  1.0000  -6.0570   0.0000   0.0000   0.0000   0.2382
  18.000   1.4751   0.09112   0.08476  -0.0270  0.0548  1.0000  -6.0599   0.0000   0.0000   0.0000   0.2383
  18.100   1.4712   0.09296   0.08669  -0.0275  0.0545  1.0000  -6.0662   0.0000   0.0000   0.0000   0.2385
  18.200   1.4681   0.09470   0.08852  -0.0280  0.0541  1.0000  -6.0772   0.0000   0.0000   0.0000   0.2386
  18.300   1.4662   0.09629   0.09017  -0.0284  0.0538  1.0000  -6.0950   0.0000   0.0000   0.0000   0.2387
  18.400   1.4662   0.09759   0.09152  -0.0287  0.0533  1.0000  -6.1250   0.0000   0.0000   0.0000   0.2386
  18.500   1.4675   0.09870   0.09266  -0.0289  0.0529  1.0000  -6.1633   0.0000   0.0000   0.0000   0.2385
  18.600   1.4732   0.09916   0.09309  -0.0287  0.0524  1.0000  -6.2299   0.0000   0.0000   0.0000   0.2381
  18.700   1.4876   0.09843   0.09224  -0.0277  0.0518  1.0000  -6.3491   0.0000   0.0000   0.0000   0.2370
  18.800   1.4793   0.10094   0.09488  -0.0287  0.0517  1.0000  -6.3259   0.0000   0.0000   0.0000   0.2376
  18.900   1.4710   0.10349   0.09756  -0.0299  0.0515  1.0000  -6.3017   0.0000   0.0000   0.0000   0.2382
  19.000   1.4626   0.10610   0.10030  -0.0311  0.0514  1.0000  -6.2761   0.0000   0.0000   0.0000   0.2389
  19.100   1.4543   0.10878   0.10310  -0.0324  0.0513  1.0000  -6.2487   0.0000   0.0000   0.0000   0.2397
  19.200   1.4457   0.11153   0.10598  -0.0339  0.0512  1.0000  -6.2191   0.0000   0.0000   0.0000   0.2405
  19.300   1.4370   0.11438   0.10894  -0.0354  0.0510  1.0000  -6.1867   0.0000   0.0000   0.0000   0.2415
  19.400   1.4281   0.11733   0.11201  -0.0371  0.0509  1.0000  -6.1508   0.0000   0.0000   0.0000   0.2426
  19.500   1.4187   0.12041   0.11521  -0.0390  0.0509  1.0000  -6.1113   0.0000   0.0000   0.0000   0.2438
  19.600   1.4088   0.12364   0.11855  -0.0410  0.0508  1.0000  -6.0662   0.0000   0.0000   0.0000   0.2452
  19.700   1.3982   0.12707   0.12210  -0.0432  0.0508  1.0000  -6.0138   0.0000   0.0000   0.0000   0.2468
  19.800   1.3868   0.13074   0.12589  -0.0457  0.0508  1.0000  -5.9524   0.0000   0.0000   0.0000   0.2486
  19.900   1.3744   0.13472   0.12999  -0.0485  0.0508  1.0000  -5.8797   0.0000   0.0000   0.0000   0.2506
  20.000   1.3606   0.13910   0.13449  -0.0516  0.0508  1.0000  -5.7928   0.0000   0.0000   0.0000   0.2531


