xflr5 v6.57

 Calculated polar for: QX0123

 1 1 Reynolds number fixed          Mach number fixed         

 xtrf =   1.000 (top)        1.000 (bottom)
 Mach =   0.000     Re =     0.420 e 6     Ncrit =   9.000

  alpha     CL        CD       CDp       Cm    Top Xtr Bot Xtr   Cpmin    Chinge    XCp    
 ------- -------- --------- --------- -------- ------- ------- -------- --------- ---------
 -10.000  -0.6556   0.02854   0.02383  -0.0883  0.9032  0.0269  -5.6843   0.0000   0.0000   0.0000   0.1019
  -9.900  -0.6474   0.02817   0.02341  -0.0882  0.9011  0.0273  -5.6040   0.0000   0.0000   0.0000   0.1004
  -9.800  -0.6395   0.02776   0.02293  -0.0880  0.8991  0.0277  -5.5287   0.0000   0.0000   0.0000   0.0990
  -9.700  -0.6316   0.02735   0.02245  -0.0878  0.8973  0.0280  -5.4547   0.0000   0.0000   0.0000   0.0977
  -9.600  -0.6240   0.02687   0.02189  -0.0876  0.8958  0.0284  -5.3866   0.0000   0.0000   0.0000   0.0964
  -9.500  -0.6157   0.02629   0.02124  -0.0876  0.8937  0.0289  -5.3208   0.0000   0.0000   0.0000   0.0946
  -9.400  -0.6074   0.02571   0.02056  -0.0875  0.8916  0.0293  -5.2575   0.0000   0.0000   0.0000   0.0928
  -9.300  -0.5991   0.02517   0.01993  -0.0874  0.8897  0.0297  -5.1925   0.0000   0.0000   0.0000   0.0911
  -9.200  -0.5906   0.02469   0.01935  -0.0872  0.8880  0.0301  -5.1253   0.0000   0.0000   0.0000   0.0893
  -9.100  -0.5819   0.02426   0.01882  -0.0870  0.8865  0.0305  -5.0553   0.0000   0.0000   0.0000   0.0874
  -9.000  -0.5730   0.02389   0.01836  -0.0868  0.8852  0.0308  -4.9825   0.0000   0.0000   0.0000   0.0855
  -8.900  -0.5633   0.02356   0.01796  -0.0868  0.8834  0.0311  -4.9048   0.0000   0.0000   0.0000   0.0829
  -8.800  -0.5533   0.02329   0.01762  -0.0868  0.8816  0.0313  -4.8244   0.0000   0.0000   0.0000   0.0802
  -8.700  -0.5434   0.02307   0.01733  -0.0867  0.8799  0.0315  -4.7424   0.0000   0.0000   0.0000   0.0775
  -8.600  -0.5334   0.02289   0.01708  -0.0866  0.8782  0.0317  -4.6591   0.0000   0.0000   0.0000   0.0747
  -8.500  -0.5270   0.02150   0.01554  -0.0864  0.8767  0.0322  -4.6268   0.0000   0.0000   0.0000   0.0732
  -8.400  -0.5188   0.02071   0.01467  -0.0862  0.8753  0.0326  -4.5668   0.0000   0.0000   0.0000   0.0710
  -8.300  -0.5098   0.02021   0.01411  -0.0860  0.8740  0.0329  -4.4947   0.0000   0.0000   0.0000   0.0684
  -8.200  -0.4998   0.01981   0.01368  -0.0860  0.8723  0.0333  -4.4154   0.0000   0.0000   0.0000   0.0650
  -8.100  -0.4897   0.01948   0.01333  -0.0860  0.8705  0.0336  -4.3341   0.0000   0.0000   0.0000   0.0615
  -8.000  -0.4796   0.01918   0.01301  -0.0859  0.8688  0.0339  -4.2527   0.0000   0.0000   0.0000   0.0579
  -7.900  -0.4695   0.01891   0.01270  -0.0858  0.8672  0.0342  -4.1805   0.0000   0.0000   0.0000   0.0542
  -7.800  -0.4595   0.01864   0.01239  -0.0857  0.8657  0.0345  -4.1140   0.0000   0.0000   0.0000   0.0505
  -7.700  -0.4494   0.01838   0.01209  -0.0856  0.8644  0.0348  -4.0482   0.0000   0.0000   0.0000   0.0466
  -7.600  -0.4394   0.01813   0.01179  -0.0854  0.8631  0.0351  -3.9831   0.0000   0.0000   0.0000   0.0426
  -7.500  -0.4289   0.01786   0.01150  -0.0854  0.8614  0.0354  -3.9172   0.0000   0.0000   0.0000   0.0378
  -7.400  -0.4183   0.01760   0.01121  -0.0853  0.8595  0.0357  -3.8520   0.0000   0.0000   0.0000   0.0328
  -7.300  -0.4079   0.01734   0.01092  -0.0853  0.8578  0.0360  -3.7877   0.0000   0.0000   0.0000   0.0277
  -7.200  -0.3975   0.01709   0.01062  -0.0852  0.8562  0.0364  -3.7240   0.0000   0.0000   0.0000   0.0224
  -7.100  -0.3871   0.01684   0.01033  -0.0851  0.8547  0.0367  -3.6608   0.0000   0.0000   0.0000   0.0169
  -7.000  -0.3768   0.01660   0.01005  -0.0849  0.8534  0.0371  -3.5981   0.0000   0.0000   0.0000   0.0111
  -6.900  -0.3664   0.01637   0.00977  -0.0848  0.8522  0.0375  -3.5358   0.0000   0.0000   0.0000   0.0051
  -6.800  -0.3557   0.01614   0.00951  -0.0847  0.8506  0.0379  -3.4729   0.0000   0.0000   0.0000  -0.0018
  -6.700  -0.3449   0.01593   0.00928  -0.0847  0.8487  0.0383  -3.4090   0.0000   0.0000   0.0000  -0.0094
  -6.600  -0.3340   0.01577   0.00908  -0.0847  0.8469  0.0388  -3.3438   0.0000   0.0000   0.0000  -0.0174
  -6.500  -0.3231   0.01565   0.00892  -0.0846  0.8453  0.0392  -3.2774   0.0000   0.0000   0.0000  -0.0259
  -6.400  -0.3129   0.01531   0.00855  -0.0845  0.8438  0.0399  -3.2208   0.0000   0.0000   0.0000  -0.0342
  -6.300  -0.3033   0.01487   0.00810  -0.0843  0.8424  0.0410  -3.1669   0.0000   0.0000   0.0000  -0.0423
  -6.200  -0.2929   0.01466   0.00789  -0.0842  0.8412  0.0420  -3.1032   0.0000   0.0000   0.0000  -0.0520
  -6.100  -0.2821   0.01450   0.00772  -0.0841  0.8397  0.0429  -3.0384   0.0000   0.0000   0.0000  -0.0631
  -6.000  -0.2711   0.01434   0.00756  -0.0842  0.8379  0.0440  -2.9749   0.0000   0.0000   0.0000  -0.0756
  -5.900  -0.2601   0.01418   0.00738  -0.0841  0.8361  0.0451  -2.9137   0.0000   0.0000   0.0000  -0.0888
  -5.800  -0.2491   0.01403   0.00720  -0.0841  0.8345  0.0463  -2.8533   0.0000   0.0000   0.0000  -0.1032
  -5.700  -0.2380   0.01392   0.00705  -0.0840  0.8330  0.0473  -2.7920   0.0000   0.0000   0.0000  -0.1190
  -5.600  -0.2281   0.01354   0.00669  -0.0839  0.8316  0.0493  -2.7384   0.0000   0.0000   0.0000  -0.1341
  -5.500  -0.2173   0.01339   0.00654  -0.0838  0.8304  0.0509  -2.6756   0.0000   0.0000   0.0000  -0.1525
  -5.400  -0.2063   0.01329   0.00641  -0.0837  0.8292  0.0526  -2.6131   0.0000   0.0000   0.0000  -0.1730
  -5.300  -0.1950   0.01318   0.00629  -0.0838  0.8271  0.0544  -2.5508   0.0000   0.0000   0.0000  -0.1974
  -5.200  -0.1838   0.01306   0.00615  -0.0838  0.8252  0.0559  -2.4914   0.0000   0.0000   0.0000  -0.2240
  -5.100  -0.1732   0.01282   0.00594  -0.0837  0.8234  0.0580  -2.4460   0.0000   0.0000   0.0000  -0.2523
  -5.000  -0.1622   0.01270   0.00582  -0.0837  0.8218  0.0599  -2.3968   0.0000   0.0000   0.0000  -0.2857
  -4.900  -0.1511   0.01260   0.00569  -0.0836  0.8203  0.0619  -2.3483   0.0000   0.0000   0.0000  -0.3240
  -4.800  -0.1399   0.01252   0.00557  -0.0835  0.8190  0.0636  -2.3001   0.0000   0.0000   0.0000  -0.3687
  -4.700  -0.1292   0.01233   0.00540  -0.0835  0.8177  0.0660  -2.2532   0.0000   0.0000   0.0000  -0.4190
  -4.600  -0.1180   0.01222   0.00531  -0.0835  0.8156  0.0683  -2.2033   0.0000   0.0000   0.0000  -0.4827
  -4.500  -0.1066   0.01213   0.00521  -0.0835  0.8137  0.0708  -2.1544   0.0000   0.0000   0.0000  -0.5597
  -4.400  -0.0955   0.01200   0.00509  -0.0835  0.8120  0.0735  -2.1064   0.0000   0.0000   0.0000  -0.6528
  -4.300  -0.0844   0.01189   0.00500  -0.0835  0.8104  0.0765  -2.0570   0.0000   0.0000   0.0000  -0.7709
  -4.200  -0.0731   0.01182   0.00490  -0.0835  0.8090  0.0799  -2.0085   0.0000   0.0000   0.0000  -0.9269
  -4.100  -0.0621   0.01169   0.00479  -0.0834  0.8077  0.0835  -1.9599   0.0000   0.0000   0.0000  -1.1338
  -4.000  -0.0508   0.01162   0.00470  -0.0834  0.8063  0.0878  -1.9114   0.0000   0.0000   0.0000  -1.4388
  -3.900  -0.0396   0.01149   0.00461  -0.0835  0.8041  0.0921  -1.8631   0.0000   0.0000   0.0000  -1.9150
  -3.800  -0.0283   0.01141   0.00453  -0.0835  0.8022  0.0970  -1.8149   0.0000   0.0000   0.0000  -2.7793
  -3.700  -0.0172   0.01128   0.00443  -0.0835  0.8004  0.1021  -1.7668   0.0000   0.0000   0.0000  -4.7337
  -3.600  -0.0060   0.01117   0.00434  -0.0835  0.7988  0.1077  -1.7187   0.0000   0.0000   0.0000  -14.0339
  -3.500   0.0052   0.01108   0.00427  -0.0834  0.7974  0.1140  -1.6704   0.0000   0.0000   0.0000  16.5398
  -3.400   0.0165   0.01101   0.00420  -0.0834  0.7960  0.1211  -1.6223   0.0000   0.0000   0.0000   5.4235
  -3.300   0.0278   0.01092   0.00414  -0.0834  0.7943  0.1283  -1.5746   0.0000   0.0000   0.0000   3.3238
  -3.200   0.0390   0.01083   0.00408  -0.0835  0.7921  0.1356  -1.5272   0.0000   0.0000   0.0000   2.4359
  -3.100   0.0503   0.01073   0.00401  -0.0835  0.7900  0.1435  -1.4803   0.0000   0.0000   0.0000   1.9464
  -3.000   0.0615   0.01062   0.00394  -0.0835  0.7882  0.1519  -1.4337   0.0000   0.0000   0.0000   1.6357
  -2.900   0.0727   0.01053   0.00387  -0.0835  0.7865  0.1612  -1.3873   0.0000   0.0000   0.0000   1.4205
  -2.700   0.0952   0.01035   0.00375  -0.0835  0.7833  0.1819  -1.2957   0.0000   0.0000   0.0000   1.1421
  -2.600   0.1065   0.01026   0.00371  -0.0835  0.7809  0.1932  -1.2504   0.0000   0.0000   0.0000   1.0474
  -2.500   0.1178   0.01017   0.00366  -0.0836  0.7787  0.2050  -1.2055   0.0000   0.0000   0.0000   0.9706
  -2.400   0.1291   0.01007   0.00360  -0.0836  0.7768  0.2175  -1.1609   0.0000   0.0000   0.0000   0.9073
  -2.300   0.1404   0.00998   0.00354  -0.0836  0.7751  0.2308  -1.1166   0.0000   0.0000   0.0000   0.8540
  -2.200   0.1517   0.00989   0.00348  -0.0836  0.7736  0.2454  -1.0727   0.0000   0.0000   0.0000   0.8085
  -2.100   0.1629   0.00980   0.00344  -0.0836  0.7718  0.2601  -1.0292   0.0000   0.0000   0.0000   0.7696
  -2.000   0.1742   0.00971   0.00341  -0.0837  0.7694  0.2762  -0.9862   0.0000   0.0000   0.0000   0.7359
  -1.900   0.1854   0.00961   0.00338  -0.0837  0.7672  0.2945  -0.9436   0.0000   0.0000   0.0000   0.7063
  -1.800   0.1966   0.00950   0.00333  -0.0837  0.7653  0.3156  -0.9014   0.0000   0.0000   0.0000   0.6800
  -1.700   0.2078   0.00939   0.00328  -0.0837  0.7635  0.3384  -0.8595   0.0000   0.0000   0.0000   0.6565
  -1.600   0.2190   0.00927   0.00323  -0.0837  0.7619  0.3624  -0.8182   0.0000   0.0000   0.0000   0.6354
  -1.500   0.2300   0.00915   0.00321  -0.0837  0.7594  0.3895  -0.7776   0.0000   0.0000   0.0000   0.6167
  -1.400   0.2410   0.00901   0.00319  -0.0837  0.7568  0.4201  -0.7477   0.0000   0.0000   0.0000   0.5997
  -1.300   0.2519   0.00887   0.00315  -0.0837  0.7545  0.4543  -0.7193   0.0000   0.0000   0.0000   0.5841
  -1.200   0.2628   0.00872   0.00312  -0.0836  0.7525  0.4909  -0.6913   0.0000   0.0000   0.0000   0.5698
  -1.100   0.2737   0.00859   0.00309  -0.0835  0.7508  0.5280  -0.6634   0.0000   0.0000   0.0000   0.5565
  -1.000   0.2844   0.00847   0.00310  -0.0835  0.7482  0.5643  -0.6386   0.0000   0.0000   0.0000   0.5443
  -0.900   0.2951   0.00836   0.00310  -0.0834  0.7457  0.5974  -0.6463   0.0000   0.0000   0.0000   0.5330
  -0.800   0.3058   0.00825   0.00310  -0.0832  0.7434  0.6313  -0.6540   0.0000   0.0000   0.0000   0.5223
  -0.700   0.3165   0.00815   0.00309  -0.0830  0.7414  0.6627  -0.6617   0.0000   0.0000   0.0000   0.5122
  -0.600   0.3272   0.00808   0.00308  -0.0827  0.7397  0.6904  -0.6700   0.0000   0.0000   0.0000   0.5027
  -0.500   0.3379   0.00802   0.00310  -0.0826  0.7367  0.7132  -0.6786   0.0000   0.0000   0.0000   0.4940
  -0.400   0.3485   0.00797   0.00310  -0.0824  0.7340  0.7332  -0.6873   0.0000   0.0000   0.0000   0.4857
  -0.300   0.3593   0.00792   0.00309  -0.0821  0.7316  0.7519  -0.6961   0.0000   0.0000   0.0000   0.4778
  -0.200   0.3700   0.00787   0.00307  -0.0819  0.7295  0.7694  -0.7048   0.0000   0.0000   0.0000   0.4703
  -0.100   0.3805   0.00783   0.00308  -0.0816  0.7269  0.7864  -0.7145   0.0000   0.0000   0.0000   0.4633
   0.000   0.3910   0.00780   0.00309  -0.0814  0.7240  0.8025  -0.7246   0.0000   0.0000   0.0000   0.4567
   0.100   0.4015   0.00776   0.00308  -0.0811  0.7214  0.8173  -0.7347   0.0000   0.0000   0.0000   0.4504
   0.200   0.4120   0.00773   0.00307  -0.0808  0.7191  0.8309  -0.7449   0.0000   0.0000   0.0000   0.4443
   0.300   0.4224   0.00771   0.00306  -0.0805  0.7166  0.8445  -0.7550   0.0000   0.0000   0.0000   0.4386
   0.400   0.4325   0.00768   0.00307  -0.0801  0.7133  0.8579  -0.7650   0.0000   0.0000   0.0000   0.4331
   0.500   0.4425   0.00765   0.00306  -0.0797  0.7102  0.8718  -0.7750   0.0000   0.0000   0.0000   0.4279
   0.600   0.4524   0.00762   0.00304  -0.0792  0.7077  0.8860  -0.7849   0.0000   0.0000   0.0000   0.4227
   0.700   0.4621   0.00759   0.00304  -0.0787  0.7044  0.9000  -0.7948   0.0000   0.0000   0.0000   0.4178
   0.800   0.4721   0.00757   0.00303  -0.0783  0.7009  0.9142  -0.8047   0.0000   0.0000   0.0000   0.4132
   1.000   0.4945   0.00753   0.00298  -0.0779  0.6947  0.9431  -0.8263   0.0000   0.0000   0.0000   0.4046
   1.100   0.5082   0.00751   0.00297  -0.0783  0.6907  0.9565  -0.8391   0.0000   0.0000   0.0000   0.4010
   1.200   0.5235   0.00750   0.00294  -0.0790  0.6873  0.9683  -0.8532   0.0000   0.0000   0.0000   0.3978
   1.300   0.5397   0.00750   0.00291  -0.0800  0.6838  0.9787  -0.8679   0.0000   0.0000   0.0000   0.3950
   1.400   0.5567   0.00749   0.00290  -0.0812  0.6797  0.9875  -0.8830   0.0000   0.0000   0.0000   0.3925
   1.500   0.5738   0.00749   0.00287  -0.0825  0.6763  0.9949  -0.8984   0.0000   0.0000   0.0000   0.3902
   1.600   0.5897   0.00750   0.00285  -0.0835  0.6729  1.0000  -0.9147   0.0000   0.0000   0.0000   0.3879
   1.700   0.6000   0.00752   0.00286  -0.0833  0.6689  1.0000  -0.9279   0.0000   0.0000   0.0000   0.3852
   1.800   0.6106   0.00754   0.00285  -0.0832  0.6655  1.0000  -0.9413   0.0000   0.0000   0.0000   0.3825
   1.900   0.6212   0.00757   0.00285  -0.0831  0.6619  1.0000  -0.9549   0.0000   0.0000   0.0000   0.3799
   2.000   0.6319   0.00759   0.00286  -0.0831  0.6577  1.0000  -0.9690   0.0000   0.0000   0.0000   0.3774
   2.100   0.6427   0.00762   0.00286  -0.0830  0.6540  1.0000  -0.9831   0.0000   0.0000   0.0000   0.3749
   2.200   0.6535   0.00765   0.00287  -0.0829  0.6498  1.0000  -0.9974   0.0000   0.0000   0.0000   0.3726
   2.300   0.6643   0.00768   0.00288  -0.0828  0.6455  1.0000  -1.0122   0.0000   0.0000   0.0000   0.3703
   2.400   0.6752   0.00772   0.00288  -0.0828  0.6416  1.0000  -1.0271   0.0000   0.0000   0.0000   0.3681
   2.500   0.6860   0.00774   0.00290  -0.0827  0.6365  1.0000  -1.0420   0.0000   0.0000   0.0000   0.3660
   2.600   0.6969   0.00778   0.00290  -0.0826  0.6321  1.0000  -1.0570   0.0000   0.0000   0.0000   0.3639
   2.700   0.7077   0.00782   0.00292  -0.0826  0.6270  1.0000  -1.0720   0.0000   0.0000   0.0000   0.3619
   2.800   0.7186   0.00786   0.00294  -0.0825  0.6222  1.0000  -1.0871   0.0000   0.0000   0.0000   0.3599
   2.900   0.7294   0.00790   0.00296  -0.0824  0.6170  1.0000  -1.1026   0.0000   0.0000   0.0000   0.3580
   3.000   0.7402   0.00795   0.00297  -0.0824  0.6117  1.0000  -1.1189   0.0000   0.0000   0.0000   0.3561
   3.100   0.7511   0.00799   0.00300  -0.0823  0.6064  1.0000  -1.1352   0.0000   0.0000   0.0000   0.3543
   3.200   0.7619   0.00804   0.00302  -0.0822  0.6012  1.0000  -1.1516   0.0000   0.0000   0.0000   0.3526
   3.300   0.7727   0.00810   0.00305  -0.0822  0.5961  1.0000  -1.1680   0.0000   0.0000   0.0000   0.3509
   3.400   0.7835   0.00815   0.00310  -0.0821  0.5909  1.0000  -1.1853   0.0000   0.0000   0.0000   0.3492
   3.500   0.7943   0.00821   0.00313  -0.0820  0.5859  1.0000  -1.2038   0.0000   0.0000   0.0000   0.3476
   3.600   0.8051   0.00827   0.00317  -0.0820  0.5805  1.0000  -1.2222   0.0000   0.0000   0.0000   0.3460
   3.700   0.8158   0.00833   0.00321  -0.0819  0.5754  1.0000  -1.2407   0.0000   0.0000   0.0000   0.3445
   3.800   0.8266   0.00839   0.00325  -0.0818  0.5697  1.0000  -1.2593   0.0000   0.0000   0.0000   0.3430
   3.900   0.8373   0.00846   0.00329  -0.0817  0.5644  1.0000  -1.2779   0.0000   0.0000   0.0000   0.3415
   4.000   0.8480   0.00853   0.00334  -0.0817  0.5586  1.0000  -1.2965   0.0000   0.0000   0.0000   0.3401
   4.100   0.8586   0.00860   0.00339  -0.0816  0.5532  1.0000  -1.3152   0.0000   0.0000   0.0000   0.3387
   4.200   0.8693   0.00868   0.00344  -0.0815  0.5474  1.0000  -1.3365   0.0000   0.0000   0.0000   0.3373
   4.300   0.8799   0.00875   0.00349  -0.0814  0.5417  1.0000  -1.3581   0.0000   0.0000   0.0000   0.3360
   4.400   0.8904   0.00884   0.00354  -0.0813  0.5357  1.0000  -1.3798   0.0000   0.0000   0.0000   0.3346
   4.500   0.9010   0.00891   0.00360  -0.0812  0.5296  1.0000  -1.4016   0.0000   0.0000   0.0000   0.3333
   4.600   0.9113   0.00901   0.00366  -0.0811  0.5235  1.0000  -1.4233   0.0000   0.0000   0.0000   0.3321
   4.700   0.9219   0.00909   0.00372  -0.0810  0.5169  1.0000  -1.4465   0.0000   0.0000   0.0000   0.3308
   4.800   0.9321   0.00919   0.00379  -0.0809  0.5106  1.0000  -1.4706   0.0000   0.0000   0.0000   0.3296
   4.900   0.9425   0.00928   0.00386  -0.0808  0.5038  1.0000  -1.4950   0.0000   0.0000   0.0000   0.3284
   5.000   0.9529   0.00937   0.00393  -0.0806  0.4972  1.0000  -1.5194   0.0000   0.0000   0.0000   0.3273
   5.100   0.9630   0.00948   0.00400  -0.0805  0.4906  1.0000  -1.5436   0.0000   0.0000   0.0000   0.3261
   5.200   0.9734   0.00957   0.00411  -0.0804  0.4837  1.0000  -1.5682   0.0000   0.0000   0.0000   0.3250
   5.300   0.9835   0.00968   0.00419  -0.0802  0.4773  1.0000  -1.5930   0.0000   0.0000   0.0000   0.3238
   5.400   0.9937   0.00978   0.00427  -0.0801  0.4706  1.0000  -1.6193   0.0000   0.0000   0.0000   0.3228
   5.500   1.0039   0.00989   0.00435  -0.0800  0.4640  1.0000  -1.6457   0.0000   0.0000   0.0000   0.3217
   5.600   1.0137   0.01002   0.00444  -0.0798  0.4574  1.0000  -1.6718   0.0000   0.0000   0.0000   0.3206
   5.700   1.0239   0.01012   0.00453  -0.0797  0.4499  1.0000  -1.6984   0.0000   0.0000   0.0000   0.3196
   5.800   1.0338   0.01024   0.00462  -0.0795  0.4428  1.0000  -1.7250   0.0000   0.0000   0.0000   0.3185
   6.000   1.0535   0.01049   0.00481  -0.0791  0.4281  1.0000  -1.7866   0.0000   0.0000   0.0000   0.3165
   6.100   1.0633   0.01062   0.00492  -0.0790  0.4211  1.0000  -1.8179   0.0000   0.0000   0.0000   0.3155
   6.200   1.0728   0.01077   0.00503  -0.0787  0.4139  1.0000  -1.8489   0.0000   0.0000   0.0000   0.3145
   6.300   1.0826   0.01089   0.00513  -0.0786  0.4063  1.0000  -1.8806   0.0000   0.0000   0.0000   0.3136
   6.400   1.0921   0.01103   0.00524  -0.0784  0.3988  1.0000  -1.9120   0.0000   0.0000   0.0000   0.3126
   6.500   1.1015   0.01119   0.00536  -0.0781  0.3913  1.0000  -1.9445   0.0000   0.0000   0.0000   0.3117
   6.600   1.1109   0.01134   0.00548  -0.0779  0.3835  1.0000  -1.9855   0.0000   0.0000   0.0000   0.3108
   6.700   1.1203   0.01149   0.00560  -0.0777  0.3758  1.0000  -2.0268   0.0000   0.0000   0.0000   0.3098
   6.800   1.1295   0.01165   0.00573  -0.0774  0.3684  1.0000  -2.0678   0.0000   0.0000   0.0000   0.3089
   6.900   1.1387   0.01181   0.00586  -0.0772  0.3610  1.0000  -2.1090   0.0000   0.0000   0.0000   0.3080
   7.000   1.1481   0.01196   0.00599  -0.0769  0.3535  1.0000  -2.1509   0.0000   0.0000   0.0000   0.3071
   7.100   1.1571   0.01213   0.00613  -0.0767  0.3462  1.0000  -2.1923   0.0000   0.0000   0.0000   0.3062
   7.300   1.1749   0.01248   0.00645  -0.0761  0.3309  1.0000  -2.2800   0.0000   0.0000   0.0000   0.3045
   7.400   1.1837   0.01266   0.00660  -0.0758  0.3233  1.0000  -2.3276   0.0000   0.0000   0.0000   0.3036
   7.500   1.1921   0.01286   0.00676  -0.0754  0.3159  1.0000  -2.3749   0.0000   0.0000   0.0000   0.3027
   7.600   1.2007   0.01306   0.00692  -0.0751  0.3081  1.0000  -2.4226   0.0000   0.0000   0.0000   0.3019
   7.700   1.2093   0.01324   0.00708  -0.0748  0.3005  1.0000  -2.4708   0.0000   0.0000   0.0000   0.3010
   7.800   1.2177   0.01344   0.00725  -0.0744  0.2931  1.0000  -2.5187   0.0000   0.0000   0.0000   0.3002
   7.900   1.2257   0.01366   0.00743  -0.0740  0.2857  1.0000  -2.5660   0.0000   0.0000   0.0000   0.2993
   8.000   1.2340   0.01386   0.00760  -0.0737  0.2782  1.0000  -2.6144   0.0000   0.0000   0.0000   0.2985
   8.100   1.2421   0.01407   0.00778  -0.0733  0.2711  1.0000  -2.6625   0.0000   0.0000   0.0000   0.2976
   8.200   1.2498   0.01430   0.00797  -0.0729  0.2643  1.0000  -2.7097   0.0000   0.0000   0.0000   0.2968
   8.300   1.2577   0.01451   0.00816  -0.0724  0.2574  1.0000  -2.7579   0.0000   0.0000   0.0000   0.2959
   8.400   1.2655   0.01472   0.00835  -0.0720  0.2509  1.0000  -2.8061   0.0000   0.0000   0.0000   0.2951
   8.500   1.2728   0.01497   0.00856  -0.0715  0.2448  1.0000  -2.8531   0.0000   0.0000   0.0000   0.2942
   8.600   1.2807   0.01517   0.00875  -0.0711  0.2384  1.0000  -2.9019   0.0000   0.0000   0.0000   0.2934
   8.700   1.2879   0.01541   0.00896  -0.0706  0.2325  1.0000  -2.9493   0.0000   0.0000   0.0000   0.2926
   8.800   1.2949   0.01566   0.00918  -0.0701  0.2263  1.0000  -2.9964   0.0000   0.0000   0.0000   0.2917
   8.900   1.3017   0.01588   0.00938  -0.0695  0.2203  1.0000  -3.0431   0.0000   0.0000   0.0000   0.2909
   9.000   1.3073   0.01616   0.00962  -0.0688  0.2148  1.0000  -3.0868   0.0000   0.0000   0.0000   0.2899
   9.100   1.3143   0.01637   0.00983  -0.0683  0.2087  1.0000  -3.1345   0.0000   0.0000   0.0000   0.2891
   9.200   1.3203   0.01664   0.01008  -0.0676  0.2031  1.0000  -3.1799   0.0000   0.0000   0.0000   0.2882
   9.300   1.3267   0.01691   0.01035  -0.0670  0.1973  1.0000  -3.2262   0.0000   0.0000   0.0000   0.2874
   9.400   1.3329   0.01718   0.01060  -0.0664  0.1920  1.0000  -3.2724   0.0000   0.0000   0.0000   0.2865
   9.500   1.3387   0.01748   0.01088  -0.0658  0.1868  1.0000  -3.3175   0.0000   0.0000   0.0000   0.2857
   9.600   1.3451   0.01775   0.01114  -0.0653  0.1817  1.0000  -3.3646   0.0000   0.0000   0.0000   0.2849
   9.700   1.3506   0.01808   0.01144  -0.0646  0.1768  1.0000  -3.4092   0.0000   0.0000   0.0000   0.2841
   9.800   1.3570   0.01836   0.01171  -0.0641  0.1719  1.0000  -3.4565   0.0000   0.0000   0.0000   0.2833
  10.000   1.3684   0.01901   0.01233  -0.0630  0.1625  1.0000  -3.5480   0.0000   0.0000   0.0000   0.2818
  10.200   1.3796   0.01969   0.01299  -0.0619  0.1537  1.0000  -3.6391   0.0000   0.0000   0.0000   0.2803
  10.300   1.3844   0.02009   0.01335  -0.0613  0.1496  1.0000  -3.6827   0.0000   0.0000   0.0000   0.2795
  10.400   1.3905   0.02040   0.01367  -0.0608  0.1453  1.0000  -3.7303   0.0000   0.0000   0.0000   0.2788
  10.500   1.3955   0.02080   0.01405  -0.0602  0.1413  1.0000  -3.7746   0.0000   0.0000   0.0000   0.2781
  10.600   1.4013   0.02114   0.01439  -0.0597  0.1373  1.0000  -3.8216   0.0000   0.0000   0.0000   0.2774
  10.700   1.4064   0.02153   0.01477  -0.0592  0.1334  1.0000  -3.8664   0.0000   0.0000   0.0000   0.2766
  10.800   1.4118   0.02190   0.01514  -0.0587  0.1297  1.0000  -3.9125   0.0000   0.0000   0.0000   0.2760
  10.900   1.4170   0.02230   0.01553  -0.0581  0.1259  1.0000  -3.9579   0.0000   0.0000   0.0000   0.2753
  11.000   1.4218   0.02272   0.01594  -0.0576  0.1226  1.0000  -4.0024   0.0000   0.0000   0.0000   0.2746
  11.100   1.4271   0.02311   0.01633  -0.0571  0.1189  1.0000  -4.0484   0.0000   0.0000   0.0000   0.2739
  11.200   1.4312   0.02358   0.01679  -0.0565  0.1158  1.0000  -4.0909   0.0000   0.0000   0.0000   0.2732
  11.300   1.4367   0.02397   0.01718  -0.0561  0.1123  1.0000  -4.1375   0.0000   0.0000   0.0000   0.2726
  11.400   1.4406   0.02447   0.01768  -0.0555  0.1093  1.0000  -4.1798   0.0000   0.0000   0.0000   0.2719
  11.500   1.4456   0.02489   0.01812  -0.0550  0.1061  1.0000  -4.2249   0.0000   0.0000   0.0000   0.2712
  11.600   1.4499   0.02537   0.01859  -0.0545  0.1031  1.0000  -4.2683   0.0000   0.0000   0.0000   0.2706
  11.700   1.4538   0.02588   0.01910  -0.0539  0.1003  1.0000  -4.3105   0.0000   0.0000   0.0000   0.2699
  11.800   1.4583   0.02635   0.01957  -0.0534  0.0974  1.0000  -4.3546   0.0000   0.0000   0.0000   0.2693
  11.900   1.4613   0.02693   0.02014  -0.0528  0.0949  1.0000  -4.3943   0.0000   0.0000   0.0000   0.2686
  12.000   1.4659   0.02740   0.02062  -0.0524  0.0922  1.0000  -4.4385   0.0000   0.0000   0.0000   0.2680
  12.100   1.4695   0.02795   0.02117  -0.0518  0.0896  1.0000  -4.4799   0.0000   0.0000   0.0000   0.2674
  12.200   1.4726   0.02854   0.02176  -0.0513  0.0874  1.0000  -4.5209   0.0000   0.0000   0.0000   0.2667
  12.300   1.4769   0.02904   0.02228  -0.0508  0.0847  1.0000  -4.5680   0.0000   0.0000   0.0000   0.2661
  12.400   1.4797   0.02966   0.02289  -0.0503  0.0825  1.0000  -4.6102   0.0000   0.0000   0.0000   0.2655
  12.500   1.4832   0.03023   0.02347  -0.0498  0.0802  1.0000  -4.6548   0.0000   0.0000   0.0000   0.2649
  12.600   1.4865   0.03082   0.02407  -0.0493  0.0780  1.0000  -4.6986   0.0000   0.0000   0.0000   0.2643
  12.700   1.4884   0.03154   0.02477  -0.0487  0.0761  1.0000  -4.7375   0.0000   0.0000   0.0000   0.2637
  12.800   1.4922   0.03210   0.02536  -0.0483  0.0739  1.0000  -4.7828   0.0000   0.0000   0.0000   0.2631
  12.900   1.4948   0.03276   0.02603  -0.0478  0.0719  1.0000  -4.8242   0.0000   0.0000   0.0000   0.2625
  13.000   1.4963   0.03352   0.02678  -0.0473  0.0702  1.0000  -4.8619   0.0000   0.0000   0.0000   0.2620
  13.100   1.4998   0.03412   0.02741  -0.0468  0.0682  1.0000  -4.9062   0.0000   0.0000   0.0000   0.2614
  13.200   1.5018   0.03485   0.02814  -0.0464  0.0665  1.0000  -4.9454   0.0000   0.0000   0.0000   0.2608
  13.300   1.5030   0.03565   0.02894  -0.0459  0.0650  1.0000  -4.9819   0.0000   0.0000   0.0000   0.2603
  13.400   1.5061   0.03630   0.02963  -0.0454  0.0632  1.0000  -5.0245   0.0000   0.0000   0.0000   0.2598
  13.500   1.5078   0.03708   0.03041  -0.0450  0.0617  1.0000  -5.0625   0.0000   0.0000   0.0000   0.2592
  13.600   1.5080   0.03799   0.03133  -0.0445  0.0605  1.0000  -5.0953   0.0000   0.0000   0.0000   0.2587
  13.700   1.5109   0.03867   0.03206  -0.0441  0.0589  1.0000  -5.1368   0.0000   0.0000   0.0000   0.2582
  13.800   1.5124   0.03949   0.03289  -0.0437  0.0576  1.0000  -5.1737   0.0000   0.0000   0.0000   0.2577
  13.900   1.5127   0.04043   0.03383  -0.0433  0.0565  1.0000  -5.2065   0.0000   0.0000   0.0000   0.2572
  14.000   1.5134   0.04133   0.03475  -0.0429  0.0554  1.0000  -5.2399   0.0000   0.0000   0.0000   0.2567
  14.100   1.5153   0.04214   0.03559  -0.0425  0.0542  1.0000  -5.2775   0.0000   0.0000   0.0000   0.2562
  14.200   1.5161   0.04305   0.03653  -0.0422  0.0531  1.0000  -5.3118   0.0000   0.0000   0.0000   0.2558
  14.300   1.5158   0.04410   0.03758  -0.0418  0.0522  1.0000  -5.3418   0.0000   0.0000   0.0000   0.2553
  14.400   1.5160   0.04511   0.03861  -0.0415  0.0513  1.0000  -5.3727   0.0000   0.0000   0.0000   0.2549
  14.500   1.5177   0.04599   0.03953  -0.0413  0.0503  1.0000  -5.4088   0.0000   0.0000   0.0000   0.2545
  14.600   1.5186   0.04695   0.04052  -0.0410  0.0494  1.0000  -5.4427   0.0000   0.0000   0.0000   0.2541
  14.700   1.5185   0.04803   0.04162  -0.0408  0.0486  1.0000  -5.4729   0.0000   0.0000   0.0000   0.2537
  14.800   1.5172   0.04926   0.04285  -0.0405  0.0480  1.0000  -5.5002   0.0000   0.0000   0.0000   0.2534
  14.900   1.5179   0.05028   0.04391  -0.0403  0.0472  1.0000  -5.5355   0.0000   0.0000   0.0000   0.2530
  15.000   1.5188   0.05130   0.04497  -0.0401  0.0464  1.0000  -5.5717   0.0000   0.0000   0.0000   0.2526
  15.100   1.5192   0.05238   0.04608  -0.0400  0.0457  1.0000  -5.6062   0.0000   0.0000   0.0000   0.2523
  15.200   1.5189   0.05355   0.04727  -0.0398  0.0451  1.0000  -5.6380   0.0000   0.0000   0.0000   0.2520
  15.300   1.5176   0.05485   0.04858  -0.0397  0.0446  1.0000  -5.6654   0.0000   0.0000   0.0000   0.2517
  15.400   1.5155   0.05624   0.04997  -0.0396  0.0441  1.0000  -5.6890   0.0000   0.0000   0.0000   0.2515
  15.500   1.5165   0.05731   0.05111  -0.0396  0.0434  1.0000  -5.7241   0.0000   0.0000   0.0000   0.2512
  15.600   1.5166   0.05848   0.05231  -0.0395  0.0428  1.0000  -5.7565   0.0000   0.0000   0.0000   0.2509
  15.700   1.5163   0.05971   0.05357  -0.0395  0.0423  1.0000  -5.7872   0.0000   0.0000   0.0000   0.2507
  15.800   1.5157   0.06098   0.05488  -0.0394  0.0418  1.0000  -5.8168   0.0000   0.0000   0.0000   0.2504
  15.900   1.5145   0.06234   0.05625  -0.0395  0.0414  1.0000  -5.8438   0.0000   0.0000   0.0000   0.2502
  16.000   1.5124   0.06382   0.05775  -0.0395  0.0410  1.0000  -5.8664   0.0000   0.0000   0.0000   0.2501
  16.100   1.5101   0.06533   0.05928  -0.0396  0.0406  1.0000  -5.8875   0.0000   0.0000   0.0000   0.2499
  16.200   1.5103   0.06656   0.06057  -0.0396  0.0401  1.0000  -5.9186   0.0000   0.0000   0.0000   0.2497
  16.300   1.5100   0.06785   0.06191  -0.0397  0.0397  1.0000  -5.9476   0.0000   0.0000   0.0000   0.2496
  16.400   1.5093   0.06920   0.06330  -0.0398  0.0392  1.0000  -5.9755   0.0000   0.0000   0.0000   0.2494
  16.500   1.5083   0.07060   0.06472  -0.0399  0.0388  1.0000  -6.0026   0.0000   0.0000   0.0000   0.2493
  16.600   1.5071   0.07203   0.06617  -0.0401  0.0384  1.0000  -6.0287   0.0000   0.0000   0.0000   0.2492
  16.700   1.5055   0.07352   0.06769  -0.0402  0.0381  1.0000  -6.0527   0.0000   0.0000   0.0000   0.2491
  16.800   1.5033   0.07509   0.06927  -0.0404  0.0378  1.0000  -6.0737   0.0000   0.0000   0.0000   0.2490
  16.900   1.5003   0.07673   0.07092  -0.0406  0.0375  1.0000  -6.0909   0.0000   0.0000   0.0000   0.2489
  17.000   1.4999   0.07811   0.07236  -0.0408  0.0371  1.0000  -6.1180   0.0000   0.0000   0.0000   0.2489
  17.100   1.4991   0.07954   0.07384  -0.0410  0.0367  1.0000  -6.1432   0.0000   0.0000   0.0000   0.2488
  17.200   1.4980   0.08101   0.07535  -0.0413  0.0364  1.0000  -6.1675   0.0000   0.0000   0.0000   0.2487
  17.300   1.4968   0.08250   0.07688  -0.0415  0.0361  1.0000  -6.1915   0.0000   0.0000   0.0000   0.2487
  17.400   1.4955   0.08402   0.07842  -0.0418  0.0358  1.0000  -6.2199   0.0000   0.0000   0.0000   0.2487
  17.500   1.4941   0.08553   0.07996  -0.0421  0.0355  1.0000  -6.2565   0.0000   0.0000   0.0000   0.2486
  17.600   1.4925   0.08707   0.08152  -0.0424  0.0352  1.0000  -6.2919   0.0000   0.0000   0.0000   0.2486
  17.700   1.4909   0.08861   0.08307  -0.0427  0.0350  1.0000  -6.3273   0.0000   0.0000   0.0000   0.2486
  17.800   1.4891   0.09015   0.08462  -0.0430  0.0348  1.0000  -6.3615   0.0000   0.0000   0.0000   0.2486
  17.900   1.4874   0.09163   0.08610  -0.0432  0.0345  1.0000  -6.3960   0.0000   0.0000   0.0000   0.2486
  18.000   1.4863   0.09316   0.08769  -0.0436  0.0343  1.0000  -6.4324   0.0000   0.0000   0.0000   0.2486
  18.100   1.4853   0.09470   0.08928  -0.0440  0.0340  1.0000  -6.4687   0.0000   0.0000   0.0000   0.2486
  18.200   1.4842   0.09622   0.09085  -0.0444  0.0338  1.0000  -6.5051   0.0000   0.0000   0.0000   0.2487
  18.300   1.4832   0.09773   0.09241  -0.0447  0.0335  1.0000  -6.5416   0.0000   0.0000   0.0000   0.2487
  18.400   1.4822   0.09923   0.09394  -0.0451  0.0333  1.0000  -6.5790   0.0000   0.0000   0.0000   0.2487
  18.500   1.4813   0.10072   0.09546  -0.0455  0.0330  1.0000  -6.6166   0.0000   0.0000   0.0000   0.2488
  18.600   1.4806   0.10218   0.09694  -0.0459  0.0328  1.0000  -6.6558   0.0000   0.0000   0.0000   0.2488
  18.700   1.4799   0.10362   0.09840  -0.0463  0.0326  1.0000  -6.6957   0.0000   0.0000   0.0000   0.2489
  18.800   1.4795   0.10502   0.09982  -0.0467  0.0324  1.0000  -6.7371   0.0000   0.0000   0.0000   0.2489
  18.900   1.4794   0.10635   0.10117  -0.0471  0.0322  1.0000  -6.7808   0.0000   0.0000   0.0000   0.2489
  19.000   1.4795   0.10761   0.10243  -0.0474  0.0320  1.0000  -6.8268   0.0000   0.0000   0.0000   0.2489
  19.100   1.4803   0.10870   0.10350  -0.0476  0.0318  1.0000  -6.8779   0.0000   0.0000   0.0000   0.2487
  19.200   1.4802   0.11002   0.10485  -0.0480  0.0316  1.0000  -6.9204   0.0000   0.0000   0.0000   0.2487
  19.300   1.4790   0.11163   0.10652  -0.0486  0.0314  1.0000  -6.9532   0.0000   0.0000   0.0000   0.2489
  19.400   1.4780   0.11322   0.10816  -0.0492  0.0312  1.0000  -6.9869   0.0000   0.0000   0.0000   0.2491
  19.500   1.4772   0.11475   0.10975  -0.0498  0.0310  1.0000  -7.0226   0.0000   0.0000   0.0000   0.2492
  19.600   1.4765   0.11627   0.11131  -0.0504  0.0308  1.0000  -7.0591   0.0000   0.0000   0.0000   0.2494
  19.700   1.4761   0.11774   0.11282  -0.0510  0.0306  1.0000  -7.0977   0.0000   0.0000   0.0000   0.2496
  19.800   1.4759   0.11916   0.11427  -0.0516  0.0304  1.0000  -7.1384   0.0000   0.0000   0.0000   0.2497
  19.900   1.4759   0.12055   0.11569  -0.0521  0.0301  1.0000  -7.1806   0.0000   0.0000   0.0000   0.2498
  20.000   1.4762   0.12187   0.11702  -0.0527  0.0299  1.0000  -7.2259   0.0000   0.0000   0.0000   0.2499


