xflr5 v6.57

 Calculated polar for: QX0123

 1 1 Reynolds number fixed          Mach number fixed         

 xtrf =   1.000 (top)        1.000 (bottom)
 Mach =   0.000     Re =     0.460 e 6     Ncrit =   9.000

  alpha     CL        CD       CDp       Cm    Top Xtr Bot Xtr   Cpmin    Chinge    XCp    
 ------- -------- --------- --------- -------- ------- ------- -------- --------- ---------
 -10.000  -0.6726   0.02565   0.02064  -0.0865  0.8951  0.0259  -5.8968   0.0000   0.0000   0.0000   0.1080
  -9.900  -0.6633   0.02538   0.02036  -0.0865  0.8931  0.0263  -5.8031   0.0000   0.0000   0.0000   0.1063
  -9.800  -0.6540   0.02515   0.02011  -0.0865  0.8911  0.0266  -5.7103   0.0000   0.0000   0.0000   0.1045
  -9.700  -0.6448   0.02490   0.01983  -0.0864  0.8893  0.0270  -5.6205   0.0000   0.0000   0.0000   0.1029
  -9.600  -0.6358   0.02462   0.01950  -0.0862  0.8876  0.0273  -5.5350   0.0000   0.0000   0.0000   0.1012
  -9.500  -0.6270   0.02429   0.01911  -0.0861  0.8860  0.0277  -5.4544   0.0000   0.0000   0.0000   0.0996
  -9.400  -0.6183   0.02390   0.01865  -0.0859  0.8846  0.0281  -5.3778   0.0000   0.0000   0.0000   0.0980
  -9.300  -0.6089   0.02351   0.01820  -0.0859  0.8827  0.0285  -5.2990   0.0000   0.0000   0.0000   0.0959
  -9.200  -0.5995   0.02312   0.01775  -0.0859  0.8809  0.0290  -5.2210   0.0000   0.0000   0.0000   0.0938
  -9.100  -0.5901   0.02274   0.01730  -0.0858  0.8792  0.0294  -5.1435   0.0000   0.0000   0.0000   0.0917
  -9.000  -0.5808   0.02238   0.01687  -0.0857  0.8776  0.0298  -5.0658   0.0000   0.0000   0.0000   0.0896
  -8.900  -0.5713   0.02203   0.01645  -0.0855  0.8762  0.0301  -4.9875   0.0000   0.0000   0.0000   0.0874
  -8.800  -0.5618   0.02172   0.01607  -0.0854  0.8749  0.0304  -4.9085   0.0000   0.0000   0.0000   0.0852
  -8.700  -0.5521   0.02142   0.01570  -0.0853  0.8735  0.0307  -4.8281   0.0000   0.0000   0.0000   0.0827
  -8.600  -0.5418   0.02114   0.01536  -0.0853  0.8718  0.0310  -4.7455   0.0000   0.0000   0.0000   0.0798
  -8.500  -0.5316   0.02088   0.01505  -0.0852  0.8700  0.0312  -4.6625   0.0000   0.0000   0.0000   0.0768
  -8.400  -0.5214   0.02064   0.01476  -0.0852  0.8684  0.0314  -4.5792   0.0000   0.0000   0.0000   0.0738
  -8.300  -0.5112   0.02043   0.01448  -0.0851  0.8669  0.0315  -4.4957   0.0000   0.0000   0.0000   0.0707
  -8.200  -0.5010   0.02023   0.01423  -0.0850  0.8655  0.0317  -4.4120   0.0000   0.0000   0.0000   0.0675
  -8.100  -0.4923   0.01952   0.01342  -0.0848  0.8642  0.0319  -4.3506   0.0000   0.0000   0.0000   0.0649
  -8.000  -0.4838   0.01875   0.01256  -0.0846  0.8630  0.0323  -4.2912   0.0000   0.0000   0.0000   0.0623
  -7.900  -0.4741   0.01820   0.01198  -0.0845  0.8612  0.0327  -4.2335   0.0000   0.0000   0.0000   0.0588
  -7.800  -0.4642   0.01778   0.01153  -0.0845  0.8594  0.0330  -4.1717   0.0000   0.0000   0.0000   0.0551
  -7.700  -0.4541   0.01745   0.01117  -0.0844  0.8577  0.0333  -4.1067   0.0000   0.0000   0.0000   0.0512
  -7.600  -0.4439   0.01716   0.01086  -0.0843  0.8561  0.0336  -4.0400   0.0000   0.0000   0.0000   0.0470
  -7.500  -0.4336   0.01691   0.01058  -0.0842  0.8547  0.0339  -3.9726   0.0000   0.0000   0.0000   0.0428
  -7.400  -0.4234   0.01667   0.01031  -0.0841  0.8533  0.0342  -3.9053   0.0000   0.0000   0.0000   0.0383
  -7.300  -0.4131   0.01645   0.01006  -0.0840  0.8521  0.0345  -3.8382   0.0000   0.0000   0.0000   0.0336
  -7.200  -0.4024   0.01623   0.00981  -0.0840  0.8505  0.0348  -3.7706   0.0000   0.0000   0.0000   0.0282
  -7.100  -0.3917   0.01601   0.00957  -0.0840  0.8488  0.0352  -3.7035   0.0000   0.0000   0.0000   0.0224
  -7.000  -0.3810   0.01579   0.00933  -0.0839  0.8471  0.0356  -3.6371   0.0000   0.0000   0.0000   0.0164
  -6.900  -0.3704   0.01558   0.00909  -0.0838  0.8455  0.0359  -3.5715   0.0000   0.0000   0.0000   0.0102
  -6.800  -0.3598   0.01537   0.00885  -0.0838  0.8440  0.0363  -3.5067   0.0000   0.0000   0.0000   0.0037
  -6.700  -0.3492   0.01516   0.00861  -0.0837  0.8426  0.0368  -3.4425   0.0000   0.0000   0.0000  -0.0032
  -6.600  -0.3386   0.01498   0.00839  -0.0835  0.8414  0.0373  -3.3782   0.0000   0.0000   0.0000  -0.0105
  -6.500  -0.3278   0.01482   0.00820  -0.0835  0.8400  0.0379  -3.3129   0.0000   0.0000   0.0000  -0.0185
  -6.400  -0.3167   0.01467   0.00803  -0.0835  0.8382  0.0385  -3.2464   0.0000   0.0000   0.0000  -0.0277
  -6.300  -0.3056   0.01456   0.00789  -0.0835  0.8364  0.0390  -3.1795   0.0000   0.0000   0.0000  -0.0375
  -6.200  -0.2944   0.01446   0.00776  -0.0835  0.8348  0.0395  -3.1127   0.0000   0.0000   0.0000  -0.0479
  -6.100  -0.2850   0.01392   0.00722  -0.0833  0.8333  0.0410  -3.0651   0.0000   0.0000   0.0000  -0.0569
  -6.000  -0.2744   0.01371   0.00701  -0.0832  0.8319  0.0422  -3.0022   0.0000   0.0000   0.0000  -0.0682
  -5.900  -0.2636   0.01356   0.00684  -0.0832  0.8306  0.0433  -2.9382   0.0000   0.0000   0.0000  -0.0807
  -5.800  -0.2527   0.01342   0.00668  -0.0831  0.8295  0.0445  -2.8755   0.0000   0.0000   0.0000  -0.0942
  -5.700  -0.2415   0.01329   0.00654  -0.0831  0.8278  0.0459  -2.8132   0.0000   0.0000   0.0000  -0.1098
  -5.600  -0.2302   0.01318   0.00640  -0.0831  0.8260  0.0471  -2.7506   0.0000   0.0000   0.0000  -0.1272
  -5.500  -0.2197   0.01289   0.00612  -0.0831  0.8243  0.0489  -2.6940   0.0000   0.0000   0.0000  -0.1446
  -5.400  -0.2088   0.01273   0.00597  -0.0830  0.8226  0.0507  -2.6309   0.0000   0.0000   0.0000  -0.1647
  -5.300  -0.1977   0.01262   0.00585  -0.0830  0.8211  0.0524  -2.5673   0.0000   0.0000   0.0000  -0.1873
  -5.200  -0.1865   0.01253   0.00573  -0.0829  0.8197  0.0542  -2.5061   0.0000   0.0000   0.0000  -0.2126
  -5.100  -0.1753   0.01247   0.00562  -0.0829  0.8185  0.0555  -2.4576   0.0000   0.0000   0.0000  -0.2415
  -5.000  -0.1646   0.01223   0.00541  -0.0829  0.8168  0.0578  -2.4124   0.0000   0.0000   0.0000  -0.2728
  -4.900  -0.1534   0.01211   0.00530  -0.0829  0.8148  0.0597  -2.3621   0.0000   0.0000   0.0000  -0.3107
  -4.800  -0.1421   0.01201   0.00520  -0.0829  0.8130  0.0616  -2.3123   0.0000   0.0000   0.0000  -0.3545
  -4.700  -0.1308   0.01193   0.00509  -0.0829  0.8114  0.0635  -2.2630   0.0000   0.0000   0.0000  -0.4061
  -4.600  -0.1199   0.01176   0.00494  -0.0828  0.8099  0.0658  -2.2151   0.0000   0.0000   0.0000  -0.4651
  -4.500  -0.1087   0.01165   0.00483  -0.0828  0.8085  0.0683  -2.1651   0.0000   0.0000   0.0000  -0.5375
  -4.400  -0.0975   0.01157   0.00473  -0.0828  0.8073  0.0709  -2.1157   0.0000   0.0000   0.0000  -0.6271
  -4.300  -0.0863   0.01146   0.00462  -0.0828  0.8057  0.0738  -2.0670   0.0000   0.0000   0.0000  -0.7400
  -4.200  -0.0750   0.01136   0.00455  -0.0828  0.8037  0.0771  -2.0172   0.0000   0.0000   0.0000  -0.8892
  -4.100  -0.0636   0.01127   0.00447  -0.0829  0.8019  0.0807  -1.9682   0.0000   0.0000   0.0000  -1.0916
  -4.000  -0.0524   0.01116   0.00438  -0.0829  0.8001  0.0846  -1.9189   0.0000   0.0000   0.0000  -1.3770
  -3.900  -0.0411   0.01108   0.00429  -0.0828  0.7986  0.0890  -1.8702   0.0000   0.0000   0.0000  -1.8235
  -3.800  -0.0299   0.01097   0.00419  -0.0828  0.7972  0.0937  -1.8215   0.0000   0.0000   0.0000  -2.5957
  -3.700  -0.0187   0.01088   0.00409  -0.0828  0.7959  0.0985  -1.7731   0.0000   0.0000   0.0000  -4.3062
  -3.600  -0.0074   0.01078   0.00402  -0.0828  0.7942  0.1039  -1.7246   0.0000   0.0000   0.0000  -11.3009
  -3.500   0.0039   0.01068   0.00396  -0.0829  0.7921  0.1096  -1.6762   0.0000   0.0000   0.0000  21.7918
  -3.400   0.0153   0.01059   0.00390  -0.0829  0.7901  0.1159  -1.6278   0.0000   0.0000   0.0000   5.8117
  -3.300   0.0266   0.01052   0.00384  -0.0829  0.7883  0.1228  -1.5797   0.0000   0.0000   0.0000   3.4385
  -3.200   0.0379   0.01044   0.00376  -0.0829  0.7867  0.1301  -1.5319   0.0000   0.0000   0.0000   2.4837
  -3.100   0.0492   0.01035   0.00369  -0.0829  0.7852  0.1376  -1.4846   0.0000   0.0000   0.0000   1.9708
  -3.000   0.0605   0.01026   0.00362  -0.0829  0.7837  0.1456  -1.4377   0.0000   0.0000   0.0000   1.6494
  -2.900   0.0718   0.01016   0.00357  -0.0830  0.7814  0.1545  -1.3911   0.0000   0.0000   0.0000   1.4286
  -2.800   0.0831   0.01006   0.00353  -0.0830  0.7792  0.1642  -1.3448   0.0000   0.0000   0.0000   1.2679
  -2.700   0.0944   0.00997   0.00347  -0.0830  0.7773  0.1749  -1.2989   0.0000   0.0000   0.0000   1.1454
  -2.600   0.1057   0.00988   0.00341  -0.0831  0.7755  0.1860  -1.2533   0.0000   0.0000   0.0000   1.0489
  -2.500   0.1170   0.00980   0.00334  -0.0831  0.7740  0.1972  -1.2081   0.0000   0.0000   0.0000   0.9709
  -2.400   0.1283   0.00971   0.00329  -0.0831  0.7724  0.2089  -1.1633   0.0000   0.0000   0.0000   0.9070
  -2.300   0.1397   0.00963   0.00326  -0.0831  0.7701  0.2217  -1.1189   0.0000   0.0000   0.0000   0.8535
  -2.200   0.1510   0.00954   0.00322  -0.0832  0.7679  0.2351  -1.0748   0.0000   0.0000   0.0000   0.8081
  -2.100   0.1624   0.00946   0.00318  -0.0832  0.7660  0.2493  -1.0311   0.0000   0.0000   0.0000   0.7688
  -2.000   0.1737   0.00937   0.00312  -0.0832  0.7642  0.2639  -0.9878   0.0000   0.0000   0.0000   0.7347
  -1.900   0.1850   0.00928   0.00307  -0.0832  0.7626  0.2800  -0.9449   0.0000   0.0000   0.0000   0.7047
  -1.800   0.1963   0.00918   0.00303  -0.0833  0.7608  0.2984  -0.9025   0.0000   0.0000   0.0000   0.6784
  -1.700   0.2075   0.00908   0.00301  -0.0833  0.7582  0.3199  -0.8606   0.0000   0.0000   0.0000   0.6551
  -1.600   0.2187   0.00897   0.00298  -0.0833  0.7558  0.3423  -0.8192   0.0000   0.0000   0.0000   0.6342
  -1.500   0.2299   0.00885   0.00294  -0.0834  0.7537  0.3661  -0.7782   0.0000   0.0000   0.0000   0.6152
  -1.400   0.2410   0.00873   0.00289  -0.0834  0.7518  0.3936  -0.7480   0.0000   0.0000   0.0000   0.5980
  -1.300   0.2521   0.00860   0.00286  -0.0833  0.7499  0.4245  -0.7195   0.0000   0.0000   0.0000   0.5825
  -1.200   0.2631   0.00846   0.00285  -0.0834  0.7472  0.4588  -0.6913   0.0000   0.0000   0.0000   0.5684
  -1.100   0.2740   0.00832   0.00284  -0.0833  0.7448  0.4957  -0.6634   0.0000   0.0000   0.0000   0.5553
  -1.000   0.2849   0.00820   0.00282  -0.0833  0.7427  0.5319  -0.6394   0.0000   0.0000   0.0000   0.5431
  -0.900   0.2958   0.00808   0.00280  -0.0832  0.7408  0.5675  -0.6472   0.0000   0.0000   0.0000   0.5318
  -0.800   0.3066   0.00798   0.00279  -0.0831  0.7388  0.6000  -0.6550   0.0000   0.0000   0.0000   0.5212
  -0.700   0.3174   0.00787   0.00281  -0.0830  0.7360  0.6333  -0.6626   0.0000   0.0000   0.0000   0.5114
  -0.600   0.3281   0.00779   0.00282  -0.0828  0.7334  0.6639  -0.6708   0.0000   0.0000   0.0000   0.5021
  -0.500   0.3389   0.00772   0.00281  -0.0826  0.7311  0.6905  -0.6796   0.0000   0.0000   0.0000   0.4933
  -0.400   0.3497   0.00766   0.00279  -0.0824  0.7291  0.7125  -0.6884   0.0000   0.0000   0.0000   0.4850
  -0.300   0.3605   0.00761   0.00281  -0.0822  0.7264  0.7317  -0.6971   0.0000   0.0000   0.0000   0.4773
  -0.200   0.3713   0.00756   0.00281  -0.0821  0.7235  0.7501  -0.7059   0.0000   0.0000   0.0000   0.4700
  -0.100   0.3821   0.00752   0.00281  -0.0819  0.7210  0.7676  -0.7157   0.0000   0.0000   0.0000   0.4630
   0.000   0.3927   0.00748   0.00280  -0.0816  0.7189  0.7841  -0.7260   0.0000   0.0000   0.0000   0.4564
   0.100   0.4034   0.00745   0.00280  -0.0814  0.7164  0.7998  -0.7362   0.0000   0.0000   0.0000   0.4502
   0.200   0.4140   0.00742   0.00281  -0.0812  0.7132  0.8141  -0.7464   0.0000   0.0000   0.0000   0.4443
   0.300   0.4246   0.00739   0.00281  -0.0809  0.7103  0.8275  -0.7567   0.0000   0.0000   0.0000   0.4387
   0.400   0.4350   0.00736   0.00279  -0.0806  0.7077  0.8409  -0.7669   0.0000   0.0000   0.0000   0.4332
   0.500   0.4453   0.00734   0.00280  -0.0803  0.7045  0.8544  -0.7770   0.0000   0.0000   0.0000   0.4281
   0.600   0.4554   0.00731   0.00280  -0.0799  0.7010  0.8679  -0.7870   0.0000   0.0000   0.0000   0.4231
   0.700   0.4653   0.00729   0.00279  -0.0795  0.6981  0.8818  -0.7970   0.0000   0.0000   0.0000   0.4183
   0.800   0.4752   0.00727   0.00278  -0.0790  0.6951  0.8959  -0.8070   0.0000   0.0000   0.0000   0.4136
   0.900   0.4850   0.00724   0.00278  -0.0785  0.6913  0.9099  -0.8169   0.0000   0.0000   0.0000   0.4092
   1.000   0.4952   0.00722   0.00277  -0.0781  0.6879  0.9244  -0.8271   0.0000   0.0000   0.0000   0.4049
   1.100   0.5063   0.00721   0.00274  -0.0779  0.6849  0.9390  -0.8383   0.0000   0.0000   0.0000   0.4009
   1.200   0.5191   0.00719   0.00274  -0.0781  0.6807  0.9530  -0.8508   0.0000   0.0000   0.0000   0.3973
   1.300   0.5339   0.00719   0.00272  -0.0788  0.6771  0.9650  -0.8646   0.0000   0.0000   0.0000   0.3943
   1.400   0.5498   0.00719   0.00269  -0.0797  0.6740  0.9756  -0.8791   0.0000   0.0000   0.0000   0.3916
   1.500   0.5663   0.00719   0.00269  -0.0808  0.6699  0.9849  -0.8940   0.0000   0.0000   0.0000   0.3892
   1.600   0.5830   0.00720   0.00268  -0.0820  0.6663  0.9927  -0.9104   0.0000   0.0000   0.0000   0.3870
   1.700   0.5999   0.00721   0.00266  -0.0832  0.6629  0.9997  -0.9282   0.0000   0.0000   0.0000   0.3850
   1.800   0.6107   0.00723   0.00267  -0.0832  0.6587  1.0000  -0.9417   0.0000   0.0000   0.0000   0.3823
   1.900   0.6213   0.00726   0.00267  -0.0831  0.6550  1.0000  -0.9554   0.0000   0.0000   0.0000   0.3797
   2.000   0.6320   0.00729   0.00267  -0.0830  0.6512  1.0000  -0.9695   0.0000   0.0000   0.0000   0.3772
   2.100   0.6428   0.00731   0.00269  -0.0829  0.6468  1.0000  -0.9836   0.0000   0.0000   0.0000   0.3748
   2.200   0.6536   0.00735   0.00268  -0.0828  0.6430  1.0000  -0.9979   0.0000   0.0000   0.0000   0.3725
   2.300   0.6644   0.00738   0.00270  -0.0828  0.6383  1.0000  -1.0127   0.0000   0.0000   0.0000   0.3702
   2.400   0.6753   0.00741   0.00271  -0.0827  0.6337  1.0000  -1.0276   0.0000   0.0000   0.0000   0.3680
   2.500   0.6861   0.00745   0.00272  -0.0826  0.6292  1.0000  -1.0425   0.0000   0.0000   0.0000   0.3658
   2.600   0.6970   0.00749   0.00273  -0.0826  0.6242  1.0000  -1.0575   0.0000   0.0000   0.0000   0.3638
   2.700   0.7078   0.00753   0.00274  -0.0825  0.6196  1.0000  -1.0726   0.0000   0.0000   0.0000   0.3617
   2.800   0.7187   0.00757   0.00277  -0.0825  0.6140  1.0000  -1.0877   0.0000   0.0000   0.0000   0.3598
   2.900   0.7295   0.00762   0.00278  -0.0824  0.6090  1.0000  -1.1032   0.0000   0.0000   0.0000   0.3579
   3.000   0.7404   0.00766   0.00281  -0.0823  0.6034  1.0000  -1.1195   0.0000   0.0000   0.0000   0.3561
   3.100   0.7511   0.00772   0.00283  -0.0823  0.5986  1.0000  -1.1358   0.0000   0.0000   0.0000   0.3542
   3.200   0.7621   0.00777   0.00286  -0.0822  0.5931  1.0000  -1.1523   0.0000   0.0000   0.0000   0.3525
   3.300   0.7728   0.00783   0.00289  -0.0821  0.5883  1.0000  -1.1686   0.0000   0.0000   0.0000   0.3508
   3.400   0.7838   0.00788   0.00295  -0.0821  0.5828  1.0000  -1.1861   0.0000   0.0000   0.0000   0.3492
   3.500   0.7945   0.00795   0.00298  -0.0820  0.5778  1.0000  -1.2045   0.0000   0.0000   0.0000   0.3476
   3.600   0.8054   0.00800   0.00302  -0.0820  0.5723  1.0000  -1.2231   0.0000   0.0000   0.0000   0.3460
   3.700   0.8161   0.00807   0.00305  -0.0819  0.5670  1.0000  -1.2415   0.0000   0.0000   0.0000   0.3445
   3.800   0.8269   0.00813   0.00310  -0.0819  0.5613  1.0000  -1.2602   0.0000   0.0000   0.0000   0.3430
   3.900   0.8375   0.00821   0.00314  -0.0818  0.5560  1.0000  -1.2787   0.0000   0.0000   0.0000   0.3415
   4.000   0.8484   0.00827   0.00319  -0.0817  0.5502  1.0000  -1.2974   0.0000   0.0000   0.0000   0.3401
   4.200   0.8697   0.00842   0.00329  -0.0816  0.5388  1.0000  -1.3375   0.0000   0.0000   0.0000   0.3373
   4.300   0.8802   0.00851   0.00334  -0.0815  0.5331  1.0000  -1.3590   0.0000   0.0000   0.0000   0.3360
   4.400   0.8909   0.00858   0.00340  -0.0814  0.5268  1.0000  -1.3809   0.0000   0.0000   0.0000   0.3347
   4.500   0.9013   0.00867   0.00346  -0.0813  0.5208  1.0000  -1.4026   0.0000   0.0000   0.0000   0.3334
   4.600   0.9118   0.00875   0.00352  -0.0812  0.5143  1.0000  -1.4243   0.0000   0.0000   0.0000   0.3321
   4.700   0.9223   0.00884   0.00358  -0.0811  0.5077  1.0000  -1.4477   0.0000   0.0000   0.0000   0.3309
   4.900   0.9431   0.00903   0.00371  -0.0809  0.4944  1.0000  -1.4963   0.0000   0.0000   0.0000   0.3285
   5.000   0.9533   0.00913   0.00378  -0.0808  0.4879  1.0000  -1.5207   0.0000   0.0000   0.0000   0.3273
   5.100   0.9637   0.00923   0.00386  -0.0806  0.4811  1.0000  -1.5451   0.0000   0.0000   0.0000   0.3262
   5.200   0.9740   0.00932   0.00396  -0.0805  0.4746  1.0000  -1.5697   0.0000   0.0000   0.0000   0.3251
   5.300   0.9841   0.00944   0.00404  -0.0804  0.4683  1.0000  -1.5945   0.0000   0.0000   0.0000   0.3239
   5.400   0.9944   0.00953   0.00412  -0.0803  0.4615  1.0000  -1.6211   0.0000   0.0000   0.0000   0.3229
   5.500   1.0045   0.00965   0.00420  -0.0801  0.4548  1.0000  -1.6474   0.0000   0.0000   0.0000   0.3218
   5.600   1.0146   0.00977   0.00429  -0.0800  0.4476  1.0000  -1.6737   0.0000   0.0000   0.0000   0.3207
   5.700   1.0247   0.00987   0.00438  -0.0799  0.4402  1.0000  -1.7003   0.0000   0.0000   0.0000   0.3197
   5.800   1.0346   0.01000   0.00447  -0.0797  0.4332  1.0000  -1.7269   0.0000   0.0000   0.0000   0.3187
   5.900   1.0444   0.01013   0.00457  -0.0795  0.4259  1.0000  -1.7576   0.0000   0.0000   0.0000   0.3177
   6.000   1.0545   0.01024   0.00466  -0.0794  0.4186  1.0000  -1.7891   0.0000   0.0000   0.0000   0.3167
   6.100   1.0642   0.01038   0.00476  -0.0792  0.4115  1.0000  -1.8204   0.0000   0.0000   0.0000   0.3157
   6.200   1.0739   0.01052   0.00487  -0.0790  0.4041  1.0000  -1.8516   0.0000   0.0000   0.0000   0.3147
   6.300   1.0837   0.01065   0.00498  -0.0788  0.3964  1.0000  -1.8833   0.0000   0.0000   0.0000   0.3138
   6.400   1.0932   0.01079   0.00509  -0.0786  0.3889  1.0000  -1.9148   0.0000   0.0000   0.0000   0.3128
   6.500   1.1025   0.01095   0.00521  -0.0784  0.3814  1.0000  -1.9486   0.0000   0.0000   0.0000   0.3118
   6.600   1.1122   0.01109   0.00532  -0.0782  0.3736  1.0000  -1.9900   0.0000   0.0000   0.0000   0.3109
   6.700   1.1217   0.01124   0.00544  -0.0780  0.3661  1.0000  -2.0314   0.0000   0.0000   0.0000   0.3100
   6.800   1.1309   0.01140   0.00557  -0.0777  0.3589  1.0000  -2.0726   0.0000   0.0000   0.0000   0.3091
   6.900   1.1403   0.01155   0.00569  -0.0775  0.3515  1.0000  -2.1143   0.0000   0.0000   0.0000   0.3082
   7.000   1.1496   0.01171   0.00582  -0.0773  0.3442  1.0000  -2.1561   0.0000   0.0000   0.0000   0.3073
   7.100   1.1586   0.01188   0.00596  -0.0770  0.3369  1.0000  -2.1975   0.0000   0.0000   0.0000   0.3064
   7.200   1.1676   0.01206   0.00614  -0.0767  0.3290  1.0000  -2.2392   0.0000   0.0000   0.0000   0.3056
   7.300   1.1766   0.01223   0.00628  -0.0765  0.3213  1.0000  -2.2873   0.0000   0.0000   0.0000   0.3047
   7.400   1.1855   0.01241   0.00643  -0.0762  0.3138  1.0000  -2.3352   0.0000   0.0000   0.0000   0.3038
   7.500   1.1940   0.01260   0.00658  -0.0758  0.3062  1.0000  -2.3828   0.0000   0.0000   0.0000   0.3030
   7.600   1.2028   0.01279   0.00674  -0.0755  0.2985  1.0000  -2.4311   0.0000   0.0000   0.0000   0.3021
   7.700   1.2115   0.01297   0.00689  -0.0752  0.2909  1.0000  -2.4797   0.0000   0.0000   0.0000   0.3013
   7.800   1.2199   0.01317   0.00706  -0.0749  0.2836  1.0000  -2.5277   0.0000   0.0000   0.0000   0.3004
   7.900   1.2280   0.01339   0.00723  -0.0745  0.2763  1.0000  -2.5754   0.0000   0.0000   0.0000   0.2996
   8.000   1.2365   0.01358   0.00740  -0.0742  0.2690  1.0000  -2.6243   0.0000   0.0000   0.0000   0.2987
   8.100   1.2447   0.01379   0.00758  -0.0738  0.2622  1.0000  -2.6726   0.0000   0.0000   0.0000   0.2979
   8.300   1.2608   0.01421   0.00794  -0.0730  0.2489  1.0000  -2.7696   0.0000   0.0000   0.0000   0.2962
   8.400   1.2686   0.01443   0.00813  -0.0726  0.2428  1.0000  -2.8178   0.0000   0.0000   0.0000   0.2954
   8.500   1.2763   0.01465   0.00832  -0.0722  0.2366  1.0000  -2.8662   0.0000   0.0000   0.0000   0.2946
   8.600   1.2842   0.01486   0.00851  -0.0718  0.2304  1.0000  -2.9150   0.0000   0.0000   0.0000   0.2938
   8.700   1.2912   0.01511   0.00873  -0.0713  0.2244  1.0000  -2.9620   0.0000   0.0000   0.0000   0.2929
   8.800   1.2989   0.01532   0.00892  -0.0708  0.2181  1.0000  -3.0111   0.0000   0.0000   0.0000   0.2921
   8.900   1.3058   0.01556   0.00914  -0.0703  0.2123  1.0000  -3.0582   0.0000   0.0000   0.0000   0.2913
   9.000   1.3121   0.01580   0.00935  -0.0696  0.2063  1.0000  -3.1040   0.0000   0.0000   0.0000   0.2904
   9.100   1.3188   0.01603   0.00956  -0.0690  0.2005  1.0000  -3.1511   0.0000   0.0000   0.0000   0.2895
   9.200   1.3247   0.01630   0.00980  -0.0684  0.1950  1.0000  -3.1962   0.0000   0.0000   0.0000   0.2886
   9.300   1.3315   0.01654   0.01005  -0.0678  0.1894  1.0000  -3.2439   0.0000   0.0000   0.0000   0.2878
   9.400   1.3374   0.01682   0.01031  -0.0672  0.1845  1.0000  -3.2895   0.0000   0.0000   0.0000   0.2869
   9.500   1.3439   0.01708   0.01056  -0.0666  0.1792  1.0000  -3.3368   0.0000   0.0000   0.0000   0.2861
   9.600   1.3499   0.01737   0.01083  -0.0660  0.1744  1.0000  -3.3828   0.0000   0.0000   0.0000   0.2853
   9.700   1.3560   0.01766   0.01110  -0.0655  0.1693  1.0000  -3.4294   0.0000   0.0000   0.0000   0.2845
   9.800   1.3620   0.01797   0.01139  -0.0649  0.1648  1.0000  -3.4756   0.0000   0.0000   0.0000   0.2837
   9.900   1.3678   0.01828   0.01168  -0.0643  0.1600  1.0000  -3.5218   0.0000   0.0000   0.0000   0.2829
  10.000   1.3736   0.01860   0.01198  -0.0638  0.1558  1.0000  -3.5680   0.0000   0.0000   0.0000   0.2822
  10.100   1.3794   0.01892   0.01230  -0.0632  0.1514  1.0000  -3.6142   0.0000   0.0000   0.0000   0.2814
  10.200   1.3850   0.01926   0.01262  -0.0627  0.1474  1.0000  -3.6601   0.0000   0.0000   0.0000   0.2807
  10.300   1.3909   0.01958   0.01294  -0.0621  0.1431  1.0000  -3.7072   0.0000   0.0000   0.0000   0.2799
  10.400   1.3963   0.01994   0.01328  -0.0616  0.1393  1.0000  -3.7527   0.0000   0.0000   0.0000   0.2792
  10.500   1.4023   0.02027   0.01360  -0.0611  0.1352  1.0000  -3.8003   0.0000   0.0000   0.0000   0.2785
  10.600   1.4073   0.02066   0.01397  -0.0605  0.1316  1.0000  -3.8450   0.0000   0.0000   0.0000   0.2778
  10.700   1.4134   0.02098   0.01431  -0.0600  0.1277  1.0000  -3.8930   0.0000   0.0000   0.0000   0.2771
  10.800   1.4181   0.02140   0.01470  -0.0595  0.1242  1.0000  -3.9373   0.0000   0.0000   0.0000   0.2763
  10.900   1.4240   0.02174   0.01505  -0.0590  0.1206  1.0000  -3.9851   0.0000   0.0000   0.0000   0.2757
  11.000   1.4289   0.02216   0.01545  -0.0585  0.1171  1.0000  -4.0299   0.0000   0.0000   0.0000   0.2750
  11.100   1.4341   0.02255   0.01584  -0.0580  0.1139  1.0000  -4.0760   0.0000   0.0000   0.0000   0.2743
  11.200   1.4390   0.02296   0.01625  -0.0574  0.1105  1.0000  -4.1211   0.0000   0.0000   0.0000   0.2736
  11.300   1.4436   0.02341   0.01668  -0.0569  0.1075  1.0000  -4.1652   0.0000   0.0000   0.0000   0.2729
  11.400   1.4487   0.02382   0.01712  -0.0564  0.1043  1.0000  -4.2113   0.0000   0.0000   0.0000   0.2723
  11.600   1.4577   0.02473   0.01802  -0.0553  0.0985  1.0000  -4.2997   0.0000   0.0000   0.0000   0.2710
  11.700   1.4616   0.02523   0.01852  -0.0548  0.0957  1.0000  -4.3423   0.0000   0.0000   0.0000   0.2703
  11.800   1.4659   0.02572   0.01900  -0.0542  0.0932  1.0000  -4.3858   0.0000   0.0000   0.0000   0.2697
  11.900   1.4703   0.02619   0.01948  -0.0537  0.0904  1.0000  -4.4299   0.0000   0.0000   0.0000   0.2690
  12.100   1.4783   0.02721   0.02051  -0.0527  0.0855  1.0000  -4.5156   0.0000   0.0000   0.0000   0.2678
  12.200   1.4819   0.02776   0.02105  -0.0522  0.0831  1.0000  -4.5601   0.0000   0.0000   0.0000   0.2671
  12.300   1.4854   0.02832   0.02161  -0.0517  0.0808  1.0000  -4.6048   0.0000   0.0000   0.0000   0.2665
  12.400   1.4894   0.02884   0.02214  -0.0512  0.0784  1.0000  -4.6513   0.0000   0.0000   0.0000   0.2659
  12.500   1.4920   0.02947   0.02277  -0.0506  0.0764  1.0000  -4.6932   0.0000   0.0000   0.0000   0.2653
  12.600   1.4958   0.03002   0.02333  -0.0501  0.0742  1.0000  -4.7390   0.0000   0.0000   0.0000   0.2647
  12.700   1.4990   0.03062   0.02393  -0.0496  0.0721  1.0000  -4.7830   0.0000   0.0000   0.0000   0.2641
  12.800   1.5009   0.03132   0.02463  -0.0491  0.0704  1.0000  -4.8223   0.0000   0.0000   0.0000   0.2635
  12.900   1.5049   0.03187   0.02520  -0.0487  0.0683  1.0000  -4.8687   0.0000   0.0000   0.0000   0.2629
  13.000   1.5074   0.03253   0.02587  -0.0482  0.0665  1.0000  -4.9104   0.0000   0.0000   0.0000   0.2623
  13.100   1.5094   0.03326   0.02660  -0.0476  0.0649  1.0000  -4.9497   0.0000   0.0000   0.0000   0.2618
  13.200   1.5127   0.03387   0.02723  -0.0472  0.0630  1.0000  -4.9939   0.0000   0.0000   0.0000   0.2612
  13.300   1.5147   0.03459   0.02796  -0.0467  0.0615  1.0000  -5.0336   0.0000   0.0000   0.0000   0.2606
  13.400   1.5162   0.03537   0.02874  -0.0462  0.0601  1.0000  -5.0713   0.0000   0.0000   0.0000   0.2601
  13.500   1.5191   0.03604   0.02945  -0.0458  0.0585  1.0000  -5.1135   0.0000   0.0000   0.0000   0.2596
  13.600   1.5208   0.03681   0.03024  -0.0454  0.0572  1.0000  -5.1520   0.0000   0.0000   0.0000   0.2590
  13.700   1.5211   0.03772   0.03114  -0.0449  0.0561  1.0000  -5.1852   0.0000   0.0000   0.0000   0.2585
  13.800   1.5237   0.03842   0.03188  -0.0445  0.0547  1.0000  -5.2261   0.0000   0.0000   0.0000   0.2580
  13.900   1.5254   0.03922   0.03270  -0.0441  0.0535  1.0000  -5.2642   0.0000   0.0000   0.0000   0.2575
  14.000   1.5261   0.04011   0.03360  -0.0437  0.0525  1.0000  -5.2986   0.0000   0.0000   0.0000   0.2570
  14.100   1.5261   0.04109   0.03458  -0.0432  0.0516  1.0000  -5.3299   0.0000   0.0000   0.0000   0.2565
  14.200   1.5284   0.04185   0.03539  -0.0429  0.0504  1.0000  -5.3693   0.0000   0.0000   0.0000   0.2560
  14.300   1.5297   0.04272   0.03628  -0.0426  0.0494  1.0000  -5.4057   0.0000   0.0000   0.0000   0.2556
  14.400   1.5301   0.04369   0.03727  -0.0422  0.0486  1.0000  -5.4386   0.0000   0.0000   0.0000   0.2551
  14.500   1.5291   0.04482   0.03840  -0.0419  0.0479  1.0000  -5.4661   0.0000   0.0000   0.0000   0.2547
  14.600   1.5310   0.04568   0.03930  -0.0416  0.0469  1.0000  -5.5033   0.0000   0.0000   0.0000   0.2543
  14.700   1.5322   0.04660   0.04026  -0.0414  0.0461  1.0000  -5.5404   0.0000   0.0000   0.0000   0.2539
  14.800   1.5327   0.04762   0.04129  -0.0411  0.0453  1.0000  -5.5765   0.0000   0.0000   0.0000   0.2535
  14.900   1.5323   0.04875   0.04243  -0.0409  0.0447  1.0000  -5.6087   0.0000   0.0000   0.0000   0.2531
  15.000   1.5306   0.05003   0.04372  -0.0407  0.0442  1.0000  -5.6351   0.0000   0.0000   0.0000   0.2528
  15.100   1.5319   0.05101   0.04475  -0.0405  0.0435  1.0000  -5.6728   0.0000   0.0000   0.0000   0.2524
  15.200   1.5326   0.05205   0.04583  -0.0403  0.0428  1.0000  -5.7090   0.0000   0.0000   0.0000   0.2521
  15.300   1.5329   0.05316   0.04697  -0.0402  0.0422  1.0000  -5.7432   0.0000   0.0000   0.0000   0.2518
  15.400   1.5326   0.05433   0.04817  -0.0401  0.0417  1.0000  -5.7754   0.0000   0.0000   0.0000   0.2515
  15.500   1.5314   0.05564   0.04949  -0.0400  0.0412  1.0000  -5.8033   0.0000   0.0000   0.0000   0.2512
  15.600   1.5291   0.05707   0.05094  -0.0399  0.0408  1.0000  -5.8262   0.0000   0.0000   0.0000   0.2510
  15.700   1.5291   0.05826   0.05217  -0.0399  0.0403  1.0000  -5.8579   0.0000   0.0000   0.0000   0.2507
  15.800   1.5293   0.05943   0.05338  -0.0398  0.0398  1.0000  -5.8907   0.0000   0.0000   0.0000   0.2505
  15.900   1.5291   0.06066   0.05466  -0.0398  0.0393  1.0000  -5.9222   0.0000   0.0000   0.0000   0.2502
  16.000   1.5286   0.06194   0.05597  -0.0398  0.0388  1.0000  -5.9524   0.0000   0.0000   0.0000   0.2500
  16.100   1.5277   0.06328   0.05733  -0.0399  0.0384  1.0000  -5.9810   0.0000   0.0000   0.0000   0.2498
  16.200   1.5261   0.06471   0.05879  -0.0399  0.0381  1.0000  -6.0066   0.0000   0.0000   0.0000   0.2497
  16.300   1.5236   0.06626   0.06036  -0.0400  0.0377  1.0000  -6.0275   0.0000   0.0000   0.0000   0.2496
  16.400   1.5211   0.06782   0.06193  -0.0401  0.0374  1.0000  -6.0479   0.0000   0.0000   0.0000   0.2494
  16.500   1.5211   0.06909   0.06326  -0.0402  0.0370  1.0000  -6.0784   0.0000   0.0000   0.0000   0.2493
  16.600   1.5204   0.07046   0.06467  -0.0404  0.0366  1.0000  -6.1064   0.0000   0.0000   0.0000   0.2491
  16.700   1.5195   0.07186   0.06611  -0.0405  0.0362  1.0000  -6.1332   0.0000   0.0000   0.0000   0.2490
  16.800   1.5182   0.07332   0.06761  -0.0407  0.0358  1.0000  -6.1586   0.0000   0.0000   0.0000   0.2489
  16.900   1.5167   0.07482   0.06913  -0.0409  0.0355  1.0000  -6.1830   0.0000   0.0000   0.0000   0.2488
  17.000   1.5148   0.07636   0.07070  -0.0411  0.0352  1.0000  -6.2058   0.0000   0.0000   0.0000   0.2488
  17.100   1.5125   0.07797   0.07233  -0.0413  0.0350  1.0000  -6.2262   0.0000   0.0000   0.0000   0.2487
  17.200   1.5097   0.07964   0.07401  -0.0416  0.0348  1.0000  -6.2504   0.0000   0.0000   0.0000   0.2487
  17.300   1.5064   0.08137   0.07575  -0.0419  0.0345  1.0000  -6.2757   0.0000   0.0000   0.0000   0.2487
  17.400   1.5056   0.08283   0.07727  -0.0421  0.0342  1.0000  -6.3156   0.0000   0.0000   0.0000   0.2487
  17.500   1.5045   0.08433   0.07882  -0.0424  0.0340  1.0000  -6.3534   0.0000   0.0000   0.0000   0.2486
  17.600   1.5031   0.08587   0.08040  -0.0427  0.0337  1.0000  -6.3899   0.0000   0.0000   0.0000   0.2486
  17.700   1.5016   0.08742   0.08200  -0.0430  0.0334  1.0000  -6.4253   0.0000   0.0000   0.0000   0.2486
  17.800   1.5000   0.08899   0.08360  -0.0434  0.0332  1.0000  -6.4604   0.0000   0.0000   0.0000   0.2486
  17.900   1.4984   0.09056   0.08521  -0.0437  0.0329  1.0000  -6.4952   0.0000   0.0000   0.0000   0.2487
  18.000   1.4968   0.09215   0.08682  -0.0441  0.0327  1.0000  -6.5297   0.0000   0.0000   0.0000   0.2487
  18.100   1.4952   0.09373   0.08843  -0.0445  0.0325  1.0000  -6.5645   0.0000   0.0000   0.0000   0.2488
  18.200   1.4935   0.09532   0.09003  -0.0449  0.0323  1.0000  -6.5989   0.0000   0.0000   0.0000   0.2488
  18.300   1.4918   0.09689   0.09162  -0.0453  0.0321  1.0000  -6.6332   0.0000   0.0000   0.0000   0.2489
  18.400   1.4902   0.09845   0.09319  -0.0456  0.0319  1.0000  -6.6674   0.0000   0.0000   0.0000   0.2489
  18.500   1.4886   0.09994   0.09467  -0.0460  0.0317  1.0000  -6.7023   0.0000   0.0000   0.0000   0.2489
  18.600   1.4874   0.10151   0.09630  -0.0464  0.0315  1.0000  -6.7374   0.0000   0.0000   0.0000   0.2490
  18.700   1.4861   0.10309   0.09794  -0.0469  0.0313  1.0000  -6.7719   0.0000   0.0000   0.0000   0.2491
  18.800   1.4851   0.10465   0.09955  -0.0474  0.0311  1.0000  -6.8077   0.0000   0.0000   0.0000   0.2492
  18.900   1.4840   0.10620   0.10115  -0.0479  0.0309  1.0000  -6.8432   0.0000   0.0000   0.0000   0.2493
  19.000   1.4831   0.10773   0.10271  -0.0484  0.0307  1.0000  -6.8798   0.0000   0.0000   0.0000   0.2494
  19.100   1.4822   0.10925   0.10426  -0.0489  0.0305  1.0000  -6.9170   0.0000   0.0000   0.0000   0.2495
  19.200   1.4814   0.11075   0.10580  -0.0494  0.0303  1.0000  -6.9547   0.0000   0.0000   0.0000   0.2496
  19.300   1.4808   0.11221   0.10728  -0.0499  0.0301  1.0000  -6.9941   0.0000   0.0000   0.0000   0.2497
  19.400   1.4803   0.11367   0.10876  -0.0504  0.0299  1.0000  -7.0340   0.0000   0.0000   0.0000   0.2498
  19.500   1.4800   0.11507   0.11018  -0.0509  0.0297  1.0000  -7.0759   0.0000   0.0000   0.0000   0.2499
  19.600   1.4800   0.11640   0.11151  -0.0514  0.0295  1.0000  -7.1208   0.0000   0.0000   0.0000   0.2500
  19.700   1.4805   0.11764   0.11275  -0.0518  0.0294  1.0000  -7.1688   0.0000   0.0000   0.0000   0.2500
  19.800   1.4815   0.11870   0.11379  -0.0521  0.0292  1.0000  -7.2224   0.0000   0.0000   0.0000   0.2499
  19.900   1.4816   0.12002   0.11514  -0.0526  0.0290  1.0000  -7.2655   0.0000   0.0000   0.0000   0.2500
  20.000   1.4801   0.12174   0.11692  -0.0534  0.0288  1.0000  -7.2944   0.0000   0.0000   0.0000   0.2503


