xflr5 v6.57

 Calculated polar for: QX0123

 1 1 Reynolds number fixed          Mach number fixed         

 xtrf =   1.000 (top)        1.000 (bottom)
 Mach =   0.000     Re =     0.100 e 6     Ncrit =   9.000

  alpha     CL        CD       CDp       Cm    Top Xtr Bot Xtr   Cpmin    Chinge    XCp    
 ------- -------- --------- --------- -------- ------- ------- -------- --------- ---------
  -9.000  -0.3800   0.10410   0.09947  -0.0361  1.0000  0.1295  -1.6856   0.0000   0.0000   0.0000   0.1427
  -8.900  -0.3962   0.10380   0.09923  -0.0355  1.0000  0.1297  -1.7353   0.0000   0.0000   0.0000   0.1488
  -6.800  -0.4793   0.05980   0.05463  -0.0615  0.9752  0.1050  -2.5137   0.0000   0.0000   0.0000   0.1130
  -6.700  -0.4696   0.05774   0.05248  -0.0632  0.9736  0.1052  -2.4954   0.0000   0.0000   0.0000   0.1067
  -6.600  -0.4641   0.05624   0.05093  -0.0636  0.9710  0.1054  -2.4801   0.0000   0.0000   0.0000   0.1043
  -6.500  -0.4554   0.05489   0.04955  -0.0643  0.9688  0.1058  -2.4586   0.0000   0.0000   0.0000   0.1000
  -6.400  -0.4437   0.05405   0.04872  -0.0650  0.9671  0.1066  -2.4140   0.0000   0.0000   0.0000   0.0946
  -6.300  -0.4271   0.05579   0.05063  -0.0648  0.9656  0.1157  -2.2761   0.0000   0.0000   0.0000   0.0895
  -6.200  -0.4335   0.04485   0.03865  -0.0690  0.9630  0.0921  -2.6351   0.0000   0.0000   0.0000   0.0814
  -6.100  -0.4285   0.03997   0.03276  -0.0705  0.9608  0.0880  -2.7940   0.0000   0.0000   0.0000   0.0756
  -6.000  -0.4164   0.03851   0.03107  -0.0713  0.9590  0.0879  -2.7824   0.0000   0.0000   0.0000   0.0686
  -5.900  -0.4028   0.03704   0.02929  -0.0724  0.9575  0.0880  -2.7722   0.0000   0.0000   0.0000   0.0599
  -5.800  -0.3878   0.03571   0.02769  -0.0737  0.9561  0.0885  -2.7524   0.0000   0.0000   0.0000   0.0495
  -5.700  -0.3799   0.03510   0.02712  -0.0734  0.9536  0.0892  -2.7114   0.0000   0.0000   0.0000   0.0461
  -5.600  -0.3683   0.03450   0.02652  -0.0738  0.9514  0.0901  -2.6651   0.0000   0.0000   0.0000   0.0388
  -5.500  -0.3546   0.03382   0.02575  -0.0746  0.9496  0.0913  -2.6211   0.0000   0.0000   0.0000   0.0286
  -5.400  -0.3392   0.03303   0.02480  -0.0757  0.9480  0.0928  -2.5811   0.0000   0.0000   0.0000   0.0157
  -5.300  -0.3235   0.03217   0.02369  -0.0767  0.9466  0.0947  -2.5484   0.0000   0.0000   0.0000   0.0012
  -5.200  -0.3152   0.03150   0.02275  -0.0764  0.9438  0.0962  -2.5323   0.0000   0.0000   0.0000  -0.0040
  -5.100  -0.3029   0.03092   0.02214  -0.0768  0.9416  0.0979  -2.4863   0.0000   0.0000   0.0000  -0.0156
  -5.000  -0.2885   0.03053   0.02179  -0.0776  0.9398  0.1000  -2.4276   0.0000   0.0000   0.0000  -0.0313
  -4.900  -0.2721   0.03001   0.02113  -0.0787  0.9382  0.1028  -2.3780   0.0000   0.0000   0.0000  -0.0519
  -4.800  -0.2574   0.02951   0.02048  -0.0795  0.9365  0.1059  -2.3317   0.0000   0.0000   0.0000  -0.0719
  -4.700  -0.2498   0.02938   0.02043  -0.0791  0.9333  0.1085  -2.2822   0.0000   0.0000   0.0000  -0.0800
  -4.600  -0.2365   0.02912   0.01995  -0.0796  0.9310  0.1132  -2.2360   0.0000   0.0000   0.0000  -0.1004
  -4.500  -0.2214   0.02888   0.01986  -0.0806  0.9292  0.1170  -2.1661   0.0000   0.0000   0.0000  -0.1282
  -4.400  -0.2039   0.02851   0.01935  -0.0818  0.9276  0.1221  -2.1105   0.0000   0.0000   0.0000  -0.1664
  -4.300  -0.1952   0.02831   0.01922  -0.0816  0.9247  0.1249  -2.0758   0.0000   0.0000   0.0000  -0.1834
  -4.200  -0.1836   0.02802   0.01882  -0.0817  0.9219  0.1288  -2.0485   0.0000   0.0000   0.0000  -0.2109
  -4.100  -0.1691   0.02768   0.01853  -0.0824  0.9199  0.1327  -2.0076   0.0000   0.0000   0.0000  -0.2545
  -4.000  -0.1524   0.02740   0.01819  -0.0835  0.9182  0.1390  -1.9645   0.0000   0.0000   0.0000  -0.3162
  -3.900  -0.1344   0.02717   0.01792  -0.0848  0.9168  0.1463  -1.9157   0.0000   0.0000   0.0000  -0.4017
  -3.800  -0.1305   0.02706   0.01792  -0.0838  0.9129  0.1495  -1.8881   0.0000   0.0000   0.0000  -0.4124
  -3.700  -0.1175   0.02683   0.01766  -0.0842  0.9105  0.1558  -1.8509   0.0000   0.0000   0.0000  -0.4887
  -3.600  -0.1016   0.02657   0.01738  -0.0850  0.9086  0.1631  -1.8085   0.0000   0.0000   0.0000  -0.6118
  -3.500  -0.0841   0.02629   0.01714  -0.0862  0.9071  0.1714  -1.7604   0.0000   0.0000   0.0000  -0.8044
  -3.400  -0.0749   0.02614   0.01707  -0.0860  0.9042  0.1776  -1.7250   0.0000   0.0000   0.0000  -0.9307
  -3.300  -0.0652   0.02600   0.01698  -0.0859  0.9010  0.1854  -1.6892   0.0000   0.0000   0.0000  -1.1026
  -3.200  -0.0505   0.02582   0.01682  -0.0866  0.8988  0.1968  -1.6437   0.0000   0.0000   0.0000  -1.5114
  -3.100  -0.0335   0.02560   0.01669  -0.0878  0.8971  0.2093  -1.5916   0.0000   0.0000   0.0000  -2.4307
  -2.900  -0.0133   0.02538   0.01659  -0.0877  0.8911  0.2317  -1.5158   0.0000   0.0000   0.0000  -6.5087
  -2.800   0.0003   0.02523   0.01650  -0.0882  0.8886  0.2469  -1.4711   0.0000   0.0000   0.0000  299.0262
  -2.700   0.0166   0.02500   0.01639  -0.0892  0.8868  0.2652  -1.4199   0.0000   0.0000   0.0000   5.7227
  -2.600   0.0347   0.02477   0.01628  -0.0905  0.8854  0.2885  -1.3655   0.0000   0.0000   0.0000   2.9111
  -2.500   0.0384   0.02477   0.01637  -0.0894  0.8811  0.3025  -1.3391   0.0000   0.0000   0.0000   2.6241
  -2.400   0.0504   0.02460   0.01634  -0.0896  0.8783  0.3259  -1.2966   0.0000   0.0000   0.0000   2.0608
  -2.300   0.0663   0.02434   0.01626  -0.0905  0.8764  0.3570  -1.2468   0.0000   0.0000   0.0000   1.6400
  -2.200   0.0837   0.02403   0.01617  -0.0916  0.8749  0.3970  -1.1939   0.0000   0.0000   0.0000   1.3631
  -2.100   0.0905   0.02393   0.01626  -0.0910  0.8713  0.4298  -1.1615   0.0000   0.0000   0.0000   1.2716
  -2.000   0.0993   0.02377   0.01634  -0.0906  0.8679  0.4728  -1.1249   0.0000   0.0000   0.0000   1.1765
  -1.900   0.1128   0.02351   0.01639  -0.0908  0.8658  0.5356  -1.0789   0.0000   0.0000   0.0000   1.0673
  -1.800   0.1267   0.02327   0.01645  -0.0908  0.8642  0.6065  -1.0314   0.0000   0.0000   0.0000   0.9767
  -1.700   0.1342   0.02323   0.01662  -0.0897  0.8612  0.6620  -0.9966   0.0000   0.0000   0.0000   0.9276
  -1.600   0.1376   0.02329   0.01682  -0.0880  0.8569  0.7056  -0.9698   0.0000   0.0000   0.0000   0.8976
  -1.500   0.1476   0.02325   0.01690  -0.0870  0.8546  0.7540  -0.9301   0.0000   0.0000   0.0000   0.8468
  -1.400   0.1583   0.02319   0.01693  -0.0860  0.8528  0.7963  -0.8888   0.0000   0.0000   0.0000   0.7993
  -1.300   0.1607   0.02332   0.01712  -0.0839  0.8486  0.8273  -0.8644   0.0000   0.0000   0.0000   0.7783
  -1.200   0.1667   0.02337   0.01721  -0.0824  0.8451  0.8600  -0.8331   0.0000   0.0000   0.0000   0.7496
  -1.100   0.1798   0.02334   0.01719  -0.0818  0.8431  0.8965  -0.7940   0.0000   0.0000   0.0000   0.7099
  -1.000   0.2026   0.02328   0.01711  -0.0832  0.8418  0.9339  -0.7429   0.0000   0.0000   0.0000   0.6644
  -0.900   0.2380   0.02320   0.01695  -0.0872  0.8412  0.9694  -0.6825   0.0000   0.0000   0.0000   0.6191
  -0.800   0.2820   0.02307   0.01673  -0.0931  0.8409  0.9965  -0.6123   0.0000   0.0000   0.0000   0.5820
  -0.700   0.2763   0.02338   0.01699  -0.0910  0.8341  1.0000  -0.6083   0.0000   0.0000   0.0000   0.5809
  -0.600   0.2896   0.02336   0.01690  -0.0914  0.8316  1.0000  -0.6154   0.0000   0.0000   0.0000   0.5670
  -0.500   0.3061   0.02330   0.01676  -0.0923  0.8299  1.0000  -0.6272   0.0000   0.0000   0.0000   0.5524
  -0.300   0.3161   0.02362   0.01697  -0.0907  0.8209  1.0000  -0.6364   0.0000   0.0000   0.0000   0.5374
  -0.200   0.3325   0.02355   0.01684  -0.0914  0.8191  1.0000  -0.6496   0.0000   0.0000   0.0000   0.5251
   0.000   0.3462   0.02387   0.01706  -0.0903  0.8105  1.0000  -0.6629   0.0000   0.0000   0.0000   0.5107
   0.100   0.3616   0.02381   0.01694  -0.0909  0.8085  1.0000  -0.6758   0.0000   0.0000   0.0000   0.5008
   0.200   0.3783   0.02370   0.01678  -0.0915  0.8070  1.0000  -0.6898   0.0000   0.0000   0.0000   0.4912
   0.300   0.3781   0.02409   0.01713  -0.0901  0.8003  1.0000  -0.6916   0.0000   0.0000   0.0000   0.4874
   0.400   0.3922   0.02404   0.01704  -0.0904  0.7980  1.0000  -0.7039   0.0000   0.0000   0.0000   0.4794
   0.500   0.4082   0.02393   0.01688  -0.0909  0.7963  1.0000  -0.7176   0.0000   0.0000   0.0000   0.4714
   0.700   0.4237   0.02425   0.01713  -0.0900  0.7876  1.0000  -0.7328   0.0000   0.0000   0.0000   0.4608
   0.800   0.4389   0.02414   0.01697  -0.0904  0.7857  1.0000  -0.7461   0.0000   0.0000   0.0000   0.4540
   0.900   0.4549   0.02398   0.01677  -0.0908  0.7843  1.0000  -0.7601   0.0000   0.0000   0.0000   0.4475
   1.000   0.4560   0.02441   0.01719  -0.0896  0.7774  1.0000  -0.7632   0.0000   0.0000   0.0000   0.4444
   1.100   0.4702   0.02431   0.01705  -0.0898  0.7752  1.0000  -0.7767   0.0000   0.0000   0.0000   0.4387
   1.200   0.4856   0.02415   0.01686  -0.0901  0.7737  1.0000  -0.7911   0.0000   0.0000   0.0000   0.4331
   1.400   0.5021   0.02445   0.01711  -0.0893  0.7649  1.0000  -0.8087   0.0000   0.0000   0.0000   0.4251
   1.500   0.5170   0.02428   0.01691  -0.0895  0.7632  1.0000  -0.8231   0.0000   0.0000   0.0000   0.4202
   1.600   0.5325   0.02407   0.01666  -0.0897  0.7618  1.0000  -0.8385   0.0000   0.0000   0.0000   0.4155
   1.700   0.5348   0.02451   0.01710  -0.0888  0.7548  1.0000  -0.8438   0.0000   0.0000   0.0000   0.4128
   1.800   0.5491   0.02433   0.01690  -0.0888  0.7527  1.0000  -0.8601   0.0000   0.0000   0.0000   0.4085
   1.900   0.5645   0.02409   0.01663  -0.0890  0.7512  1.0000  -0.8775   0.0000   0.0000   0.0000   0.4043
   2.000   0.5686   0.02445   0.01698  -0.0882  0.7447  1.0000  -0.8847   0.0000   0.0000   0.0000   0.4016
   2.100   0.5822   0.02428   0.01679  -0.0882  0.7423  1.0000  -0.9007   0.0000   0.0000   0.0000   0.3978
   2.200   0.5973   0.02402   0.01650  -0.0883  0.7407  1.0000  -0.9185   0.0000   0.0000   0.0000   0.3941
   2.400   0.6157   0.02416   0.01662  -0.0875  0.7320  1.0000  -0.9435   0.0000   0.0000   0.0000   0.3881
   2.500   0.6305   0.02389   0.01634  -0.0876  0.7302  1.0000  -0.9615   0.0000   0.0000   0.0000   0.3848
   2.600   0.6432   0.02374   0.01617  -0.0875  0.7275  1.0000  -0.9780   0.0000   0.0000   0.0000   0.3817
   2.700   0.6498   0.02396   0.01639  -0.0869  0.7217  1.0000  -0.9886   0.0000   0.0000   0.0000   0.3793
   2.800   0.6643   0.02367   0.01609  -0.0869  0.7197  1.0000  -1.0071   0.0000   0.0000   0.0000   0.3762
   2.900   0.6797   0.02333   0.01572  -0.0869  0.7182  1.0000  -1.0265   0.0000   0.0000   0.0000   0.3732
   3.000   0.6845   0.02366   0.01607  -0.0862  0.7113  1.0000  -1.0353   0.0000   0.0000   0.0000   0.3711
   3.100   0.6987   0.02338   0.01576  -0.0861  0.7091  1.0000  -1.0542   0.0000   0.0000   0.0000   0.3684
   3.200   0.7138   0.02303   0.01540  -0.0861  0.7075  1.0000  -1.0748   0.0000   0.0000   0.0000   0.3657
   3.300   0.7194   0.02333   0.01571  -0.0855  0.7010  1.0000  -1.0855   0.0000   0.0000   0.0000   0.3637
   3.400   0.7332   0.02307   0.01543  -0.0854  0.6985  1.0000  -1.1049   0.0000   0.0000   0.0000   0.3613
   3.500   0.7481   0.02273   0.01507  -0.0854  0.6967  1.0000  -1.1257   0.0000   0.0000   0.0000   0.3589
   3.600   0.7544   0.02299   0.01535  -0.0848  0.6905  1.0000  -1.1377   0.0000   0.0000   0.0000   0.3570
   3.700   0.7678   0.02275   0.01513  -0.0847  0.6878  1.0000  -1.1590   0.0000   0.0000   0.0000   0.3548
   3.800   0.7829   0.02239   0.01475  -0.0847  0.6859  1.0000  -1.1823   0.0000   0.0000   0.0000   0.3526
   3.900   0.7894   0.02263   0.01501  -0.0841  0.6796  1.0000  -1.1958   0.0000   0.0000   0.0000   0.3508
   4.000   0.8032   0.02235   0.01472  -0.0840  0.6768  1.0000  -1.2178   0.0000   0.0000   0.0000   0.3488
   4.100   0.8185   0.02197   0.01431  -0.0841  0.6748  1.0000  -1.2417   0.0000   0.0000   0.0000   0.3467
   4.200   0.8248   0.02221   0.01457  -0.0834  0.6681  1.0000  -1.2552   0.0000   0.0000   0.0000   0.3450
   4.300   0.8391   0.02189   0.01423  -0.0834  0.6654  1.0000  -1.2794   0.0000   0.0000   0.0000   0.3431
   4.400   0.8490   0.02188   0.01423  -0.0830  0.6604  1.0000  -1.2993   0.0000   0.0000   0.0000   0.3414
   4.500   0.8607   0.02173   0.01407  -0.0827  0.6560  1.0000  -1.3219   0.0000   0.0000   0.0000   0.3397
   4.600   0.8759   0.02135   0.01365  -0.0828  0.6534  1.0000  -1.3497   0.0000   0.0000   0.0000   0.3379
   4.700   0.8833   0.02150   0.01383  -0.0822  0.6467  1.0000  -1.3672   0.0000   0.0000   0.0000   0.3363
   4.800   0.8976   0.02117   0.01347  -0.0821  0.6434  1.0000  -1.3941   0.0000   0.0000   0.0000   0.3347
   4.900   0.9065   0.02123   0.01353  -0.0816  0.6373  1.0000  -1.4141   0.0000   0.0000   0.0000   0.3332
   5.000   0.9197   0.02099   0.01327  -0.0815  0.6332  1.0000  -1.4423   0.0000   0.0000   0.0000   0.3316
   5.100   0.9300   0.02096   0.01325  -0.0812  0.6277  1.0000  -1.4664   0.0000   0.0000   0.0000   0.3301
   5.200   0.9420   0.02082   0.01309  -0.0810  0.6229  1.0000  -1.4931   0.0000   0.0000   0.0000   0.3287
   5.300   0.9531   0.02075   0.01301  -0.0807  0.6177  1.0000  -1.5186   0.0000   0.0000   0.0000   0.3273
   5.400   0.9641   0.02068   0.01300  -0.0804  0.6122  1.0000  -1.5441   0.0000   0.0000   0.0000   0.3259
   5.500   0.9752   0.02063   0.01294  -0.0802  0.6069  1.0000  -1.5701   0.0000   0.0000   0.0000   0.3246
   5.600   0.9863   0.02057   0.01287  -0.0799  0.6013  1.0000  -1.5976   0.0000   0.0000   0.0000   0.3232
   5.700   0.9969   0.02055   0.01284  -0.0796  0.5955  1.0000  -1.6246   0.0000   0.0000   0.0000   0.3220
   5.800   1.0085   0.02047   0.01274  -0.0794  0.5900  1.0000  -1.6533   0.0000   0.0000   0.0000   0.3207
   5.900   1.0181   0.02052   0.01279  -0.0790  0.5835  1.0000  -1.6789   0.0000   0.0000   0.0000   0.3195
   6.000   1.0307   0.02040   0.01263  -0.0789  0.5782  1.0000  -1.7103   0.0000   0.0000   0.0000   0.3183
   6.100   1.0393   0.02050   0.01275  -0.0784  0.5709  1.0000  -1.7382   0.0000   0.0000   0.0000   0.3170
   6.200   1.0516   0.02041   0.01261  -0.0783  0.5654  1.0000  -1.7738   0.0000   0.0000   0.0000   0.3159
   6.300   1.0608   0.02049   0.01269  -0.0778  0.5581  1.0000  -1.8038   0.0000   0.0000   0.0000   0.3147
   6.400   1.0706   0.02054   0.01274  -0.0775  0.5512  1.0000  -1.8353   0.0000   0.0000   0.0000   0.3136
   6.500   1.0826   0.02049   0.01262  -0.0773  0.5451  1.0000  -1.8710   0.0000   0.0000   0.0000   0.3125
   6.600   1.0908   0.02062   0.01277  -0.0768  0.5371  1.0000  -1.9011   0.0000   0.0000   0.0000   0.3113
   6.700   1.1007   0.02068   0.01281  -0.0764  0.5299  1.0000  -1.9353   0.0000   0.0000   0.0000   0.3102
   6.800   1.1120   0.02067   0.01274  -0.0762  0.5232  1.0000  -1.9738   0.0000   0.0000   0.0000   0.3092
   6.900   1.1201   0.02082   0.01290  -0.0757  0.5150  1.0000  -2.0117   0.0000   0.0000   0.0000   0.3081
   7.000   1.1293   0.02093   0.01300  -0.0752  0.5074  1.0000  -2.0526   0.0000   0.0000   0.0000   0.3070
   7.100   1.1401   0.02098   0.01298  -0.0750  0.5003  1.0000  -2.0974   0.0000   0.0000   0.0000   0.3060
   7.200   1.1483   0.02113   0.01314  -0.0745  0.4921  1.0000  -2.1365   0.0000   0.0000   0.0000   0.3050
   7.300   1.1567   0.02129   0.01329  -0.0740  0.4840  1.0000  -2.1761   0.0000   0.0000   0.0000   0.3039
   7.400   1.1660   0.02141   0.01345  -0.0736  0.4764  1.0000  -2.2183   0.0000   0.0000   0.0000   0.3029
   7.500   1.1758   0.02152   0.01350  -0.0732  0.4688  1.0000  -2.2618   0.0000   0.0000   0.0000   0.3020
   7.600   1.1832   0.02172   0.01371  -0.0726  0.4603  1.0000  -2.2999   0.0000   0.0000   0.0000   0.3009
   7.700   1.1914   0.02191   0.01388  -0.0721  0.4521  1.0000  -2.3399   0.0000   0.0000   0.0000   0.2999
   7.800   1.2002   0.02207   0.01400  -0.0717  0.4443  1.0000  -2.3859   0.0000   0.0000   0.0000   0.2990
   7.900   1.2089   0.02224   0.01412  -0.0712  0.4364  1.0000  -2.4321   0.0000   0.0000   0.0000   0.2980
   8.000   1.2160   0.02247   0.01436  -0.0706  0.4278  1.0000  -2.4741   0.0000   0.0000   0.0000   0.2970
   8.100   1.2236   0.02269   0.01457  -0.0700  0.4197  1.0000  -2.5191   0.0000   0.0000   0.0000   0.2961
   8.200   1.2318   0.02289   0.01472  -0.0695  0.4118  1.0000  -2.5663   0.0000   0.0000   0.0000   0.2951
   8.300   1.2399   0.02311   0.01489  -0.0690  0.4039  1.0000  -2.6133   0.0000   0.0000   0.0000   0.2942
   8.400   1.2463   0.02337   0.01516  -0.0683  0.3955  1.0000  -2.6558   0.0000   0.0000   0.0000   0.2932
   8.500   1.2534   0.02363   0.01540  -0.0677  0.3874  1.0000  -2.7001   0.0000   0.0000   0.0000   0.2923
   8.600   1.2611   0.02388   0.01560  -0.0672  0.3797  1.0000  -2.7468   0.0000   0.0000   0.0000   0.2914
   8.700   1.2682   0.02414   0.01582  -0.0666  0.3719  1.0000  -2.7921   0.0000   0.0000   0.0000   0.2905
   8.800   1.2741   0.02444   0.01613  -0.0659  0.3637  1.0000  -2.8338   0.0000   0.0000   0.0000   0.2895
   8.900   1.2807   0.02473   0.01640  -0.0652  0.3560  1.0000  -2.8777   0.0000   0.0000   0.0000   0.2886
   9.000   1.2882   0.02501   0.01660  -0.0647  0.3488  1.0000  -2.9247   0.0000   0.0000   0.0000   0.2877
   9.100   1.2938   0.02533   0.01693  -0.0640  0.3410  1.0000  -2.9662   0.0000   0.0000   0.0000   0.2868
   9.200   1.2995   0.02566   0.01726  -0.0632  0.3334  1.0000  -3.0079   0.0000   0.0000   0.0000   0.2858
   9.300   1.3061   0.02598   0.01752  -0.0626  0.3263  1.0000  -3.0530   0.0000   0.0000   0.0000   0.2850
   9.400   1.3121   0.02631   0.01782  -0.0619  0.3191  1.0000  -3.0961   0.0000   0.0000   0.0000   0.2841
   9.500   1.3170   0.02667   0.01820  -0.0611  0.3118  1.0000  -3.1359   0.0000   0.0000   0.0000   0.2831
   9.600   1.3231   0.02702   0.01855  -0.0605  0.3050  1.0000  -3.1799   0.0000   0.0000   0.0000   0.2823
   9.700   1.3284   0.02738   0.01888  -0.0597  0.2981  1.0000  -3.2217   0.0000   0.0000   0.0000   0.2814
   9.800   1.3327   0.02777   0.01929  -0.0589  0.2912  1.0000  -3.2600   0.0000   0.0000   0.0000   0.2804
   9.900   1.3386   0.02813   0.01958  -0.0582  0.2848  1.0000  -3.3040   0.0000   0.0000   0.0000   0.2796
  10.000   1.3427   0.02852   0.01998  -0.0573  0.2782  1.0000  -3.3421   0.0000   0.0000   0.0000   0.2786
  10.100   1.3469   0.02893   0.02038  -0.0565  0.2718  1.0000  -3.3808   0.0000   0.0000   0.0000   0.2777
  10.200   1.3529   0.02930   0.02067  -0.0559  0.2658  1.0000  -3.4258   0.0000   0.0000   0.0000   0.2769
  10.300   1.3546   0.02973   0.02116  -0.0547  0.2596  1.0000  -3.4568   0.0000   0.0000   0.0000   0.2758
  10.400   1.3596   0.03014   0.02149  -0.0539  0.2539  1.0000  -3.4988   0.0000   0.0000   0.0000   0.2750
  10.500   1.3619   0.03058   0.02196  -0.0529  0.2480  1.0000  -3.5319   0.0000   0.0000   0.0000   0.2739
  10.600   1.3659   0.03103   0.02238  -0.0520  0.2425  1.0000  -3.5702   0.0000   0.0000   0.0000   0.2731
  10.700   1.3693   0.03147   0.02282  -0.0512  0.2369  1.0000  -3.6071   0.0000   0.0000   0.0000   0.2722
  10.800   1.3723   0.03197   0.02331  -0.0503  0.2315  1.0000  -3.6423   0.0000   0.0000   0.0000   0.2713
  10.900   1.3764   0.03242   0.02372  -0.0495  0.2262  1.0000  -3.6816   0.0000   0.0000   0.0000   0.2704
  11.000   1.3787   0.03295   0.02428  -0.0486  0.2210  1.0000  -3.7139   0.0000   0.0000   0.0000   0.2695
  11.100   1.3831   0.03342   0.02469  -0.0479  0.2160  1.0000  -3.7542   0.0000   0.0000   0.0000   0.2687
  11.200   1.3848   0.03399   0.02530  -0.0469  0.2110  1.0000  -3.7845   0.0000   0.0000   0.0000   0.2679
  11.300   1.3889   0.03447   0.02573  -0.0463  0.2062  1.0000  -3.8242   0.0000   0.0000   0.0000   0.2671
  11.400   1.3905   0.03506   0.02637  -0.0453  0.2014  1.0000  -3.8540   0.0000   0.0000   0.0000   0.2662
  11.500   1.3941   0.03557   0.02683  -0.0446  0.1968  1.0000  -3.8917   0.0000   0.0000   0.0000   0.2655
  11.600   1.3961   0.03617   0.02746  -0.0438  0.1923  1.0000  -3.9227   0.0000   0.0000   0.0000   0.2646
  11.700   1.3989   0.03673   0.02800  -0.0431  0.1878  1.0000  -3.9573   0.0000   0.0000   0.0000   0.2639
  11.800   1.4019   0.03732   0.02859  -0.0423  0.1835  1.0000  -3.9918   0.0000   0.0000   0.0000   0.2631
  11.900   1.4035   0.03794   0.02928  -0.0415  0.1793  1.0000  -4.0217   0.0000   0.0000   0.0000   0.2623
  12.000   1.4079   0.03850   0.02977  -0.0410  0.1752  1.0000  -4.0617   0.0000   0.0000   0.0000   0.2617
  12.100   1.4081   0.03921   0.03056  -0.0401  0.1711  1.0000  -4.0856   0.0000   0.0000   0.0000   0.2609
  12.200   1.4149   0.03968   0.03087  -0.0397  0.1671  1.0000  -4.1346   0.0000   0.0000   0.0000   0.2603
  12.300   1.4131   0.04050   0.03184  -0.0387  0.1634  1.0000  -4.1506   0.0000   0.0000   0.0000   0.2594
  12.400   1.4166   0.04109   0.03239  -0.0382  0.1596  1.0000  -4.1897   0.0000   0.0000   0.0000   0.2588
  12.500   1.4191   0.04179   0.03310  -0.0375  0.1559  1.0000  -4.2243   0.0000   0.0000   0.0000   0.2581
  12.600   1.4199   0.04253   0.03389  -0.0368  0.1524  1.0000  -4.2532   0.0000   0.0000   0.0000   0.2574
  12.700   1.4270   0.04303   0.03425  -0.0365  0.1487  1.0000  -4.3062   0.0000   0.0000   0.0000   0.2569
  12.800   1.4250   0.04394   0.03531  -0.0356  0.1456  1.0000  -4.3224   0.0000   0.0000   0.0000   0.2561
  12.900   1.4280   0.04460   0.03595  -0.0350  0.1423  1.0000  -4.3601   0.0000   0.0000   0.0000   0.2555
  13.000   1.4320   0.04528   0.03660  -0.0345  0.1391  1.0000  -4.3996   0.0000   0.0000   0.0000   0.2549
  13.100   1.4314   0.04616   0.03758  -0.0338  0.1361  1.0000  -4.4210   0.0000   0.0000   0.0000   0.2542
  13.200   1.4366   0.04673   0.03807  -0.0334  0.1330  1.0000  -4.4668   0.0000   0.0000   0.0000   0.2536
  13.300   1.4382   0.04757   0.03895  -0.0328  0.1302  1.0000  -4.4957   0.0000   0.0000   0.0000   0.2530
  13.400   1.4382   0.04846   0.03992  -0.0321  0.1276  1.0000  -4.5187   0.0000   0.0000   0.0000   0.2523
  13.500   1.4444   0.04898   0.04035  -0.0318  0.1247  1.0000  -4.5684   0.0000   0.0000   0.0000   0.2518
  13.600   1.4455   0.04989   0.04131  -0.0312  0.1223  1.0000  -4.5943   0.0000   0.0000   0.0000   0.2512
  13.700   1.4451   0.05084   0.04236  -0.0306  0.1199  1.0000  -4.6145   0.0000   0.0000   0.0000   0.2506
  13.800   1.4499   0.05146   0.04293  -0.0302  0.1174  1.0000  -4.6580   0.0000   0.0000   0.0000   0.2501
  13.900   1.4548   0.05219   0.04364  -0.0298  0.1150  1.0000  -4.6982   0.0000   0.0000   0.0000   0.2496
  14.000   1.4528   0.05329   0.04487  -0.0291  0.1130  1.0000  -4.7107   0.0000   0.0000   0.0000   0.2490
  14.100   1.4553   0.05409   0.04568  -0.0287  0.1109  1.0000  -4.7430   0.0000   0.0000   0.0000   0.2484
  14.200   1.4670   0.05441   0.04587  -0.0286  0.1083  1.0000  -4.8123   0.0000   0.0000   0.0000   0.2480
  14.300   1.4622   0.05571   0.04734  -0.0279  0.1069  1.0000  -4.8127   0.0000   0.0000   0.0000   0.2474
  14.400   1.4610   0.05680   0.04853  -0.0273  0.1051  1.0000  -4.8283   0.0000   0.0000   0.0000   0.2468
  14.500   1.4650   0.05753   0.04925  -0.0270  0.1032  1.0000  -4.8685   0.0000   0.0000   0.0000   0.2464
  14.600   1.4760   0.05793   0.04952  -0.0268  0.1010  1.0000  -4.9399   0.0000   0.0000   0.0000   0.2459
  14.700   1.4708   0.05930   0.05107  -0.0262  0.0998  1.0000  -4.9407   0.0000   0.0000   0.0000   0.2454
  14.800   1.4683   0.06052   0.05240  -0.0257  0.0984  1.0000  -4.9539   0.0000   0.0000   0.0000   0.2449
  14.900   1.4701   0.06143   0.05335  -0.0253  0.0969  1.0000  -4.9864   0.0000   0.0000   0.0000   0.2444
  15.000   1.4878   0.06137   0.05305  -0.0254  0.0945  1.0000  -5.0888   0.0000   0.0000   0.0000   0.2440
  15.100   1.4805   0.06292   0.05479  -0.0248  0.0937  1.0000  -5.0801   0.0000   0.0000   0.0000   0.2435
  15.200   1.4752   0.06439   0.05641  -0.0243  0.0927  1.0000  -5.0800   0.0000   0.0000   0.0000   0.2431
  15.300   1.4727   0.06569   0.05782  -0.0239  0.0917  1.0000  -5.0919   0.0000   0.0000   0.0000   0.2426
  15.400   1.4732   0.06677   0.05895  -0.0236  0.0904  1.0000  -5.1174   0.0000   0.0000   0.0000   0.2422
  15.500   1.4831   0.06715   0.05924  -0.0234  0.0888  1.0000  -5.1857   0.0000   0.0000   0.0000   0.2418
  15.600   1.4893   0.06797   0.06005  -0.0231  0.0876  1.0000  -5.2338   0.0000   0.0000   0.0000   0.2413
  15.700   1.4816   0.06969   0.06193  -0.0228  0.0870  1.0000  -5.2221   0.0000   0.0000   0.0000   0.2410
  15.800   1.4750   0.07138   0.06377  -0.0225  0.0864  1.0000  -5.2144   0.0000   0.0000   0.0000   0.2406
  15.900   1.4695   0.07301   0.06552  -0.0223  0.0857  1.0000  -5.2118   0.0000   0.0000   0.0000   0.2403
  16.000   1.4657   0.07453   0.06714  -0.0221  0.0850  1.0000  -5.2164   0.0000   0.0000   0.0000   0.2401
  16.100   1.4649   0.07580   0.06847  -0.0220  0.0842  1.0000  -5.2350   0.0000   0.0000   0.0000   0.2397
  16.200   1.4697   0.07658   0.06924  -0.0218  0.0831  1.0000  -5.2795   0.0000   0.0000   0.0000   0.2394
  16.300   1.4871   0.07656   0.06908  -0.0214  0.0816  1.0000  -5.3770   0.0000   0.0000   0.0000   0.2388
  16.400   1.4771   0.07859   0.07127  -0.0214  0.0814  1.0000  -5.3537   0.0000   0.0000   0.0000   0.2386
  16.500   1.4673   0.08068   0.07350  -0.0214  0.0811  1.0000  -5.3300   0.0000   0.0000   0.0000   0.2385
  16.600   1.4574   0.08282   0.07580  -0.0216  0.0809  1.0000  -5.3058   0.0000   0.0000   0.0000   0.2385
  16.700   1.4476   0.08504   0.07815  -0.0218  0.0806  1.0000  -5.2822   0.0000   0.0000   0.0000   0.2386
  16.800   1.4375   0.08733   0.08057  -0.0222  0.0804  1.0000  -5.2578   0.0000   0.0000   0.0000   0.2387
  16.900   1.4273   0.08971   0.08309  -0.0227  0.0802  1.0000  -5.2313   0.0000   0.0000   0.0000   0.2390
  17.000   1.4168   0.09222   0.08572  -0.0234  0.0800  1.0000  -5.2020   0.0000   0.0000   0.0000   0.2393
  17.100   1.4058   0.09486   0.08848  -0.0242  0.0798  1.0000  -5.1690   0.0000   0.0000   0.0000   0.2398
  17.200   1.3941   0.09767   0.09142  -0.0252  0.0797  1.0000  -5.1311   0.0000   0.0000   0.0000   0.2404
  17.300   1.3816   0.10070   0.09457  -0.0264  0.0797  1.0000  -5.0868   0.0000   0.0000   0.0000   0.2413
  17.400   1.3681   0.10398   0.09798  -0.0279  0.0797  1.0000  -5.0347   0.0000   0.0000   0.0000   0.2423
  17.500   1.3533   0.10758   0.10171  -0.0298  0.0798  1.0000  -4.9730   0.0000   0.0000   0.0000   0.2436
  17.600   1.3371   0.11156   0.10581  -0.0319  0.0799  1.0000  -4.9001   0.0000   0.0000   0.0000   0.2453
  17.700   1.3195   0.11597   0.11035  -0.0345  0.0802  1.0000  -4.8145   0.0000   0.0000   0.0000   0.2474
  17.800   1.3004   0.12086   0.11536  -0.0376  0.0805  1.0000  -4.7154   0.0000   0.0000   0.0000   0.2500
  17.900   1.2801   0.12624   0.12085  -0.0412  0.0809  1.0000  -4.6063   0.0000   0.0000   0.0000   0.2530
  18.000   1.2591   0.13209   0.12679  -0.0452  0.0813  1.0000  -4.4854   0.0000   0.0000   0.0000   0.2566
  18.100   1.2373   0.13845   0.13324  -0.0496  0.0817  1.0000  -4.3499   0.0000   0.0000   0.0000   0.2607


