xflr5 v6.57

 Calculated polar for: QX0123

 1 1 Reynolds number fixed          Mach number fixed         

 xtrf =   1.000 (top)        1.000 (bottom)
 Mach =   0.000     Re =     0.380 e 6     Ncrit =   9.000

  alpha     CL        CD       CDp       Cm    Top Xtr Bot Xtr   Cpmin    Chinge    XCp    
 ------- -------- --------- --------- -------- ------- ------- -------- --------- ---------
 -10.000  -0.6283   0.03300   0.02871  -0.0901  0.9137  0.0285  -5.3706   0.0000   0.0000   0.0000   0.0929
  -9.900  -0.6235   0.03209   0.02768  -0.0901  0.9112  0.0288  -5.3312   0.0000   0.0000   0.0000   0.0920
  -9.800  -0.6187   0.03117   0.02664  -0.0899  0.9090  0.0292  -5.2942   0.0000   0.0000   0.0000   0.0912
  -9.700  -0.6138   0.03027   0.02559  -0.0897  0.9070  0.0296  -5.2579   0.0000   0.0000   0.0000   0.0905
  -9.600  -0.6079   0.02936   0.02453  -0.0896  0.9049  0.0299  -5.2195   0.0000   0.0000   0.0000   0.0893
  -9.500  -0.6014   0.02849   0.02353  -0.0895  0.9025  0.0303  -5.1778   0.0000   0.0000   0.0000   0.0879
  -9.400  -0.5944   0.02778   0.02268  -0.0893  0.9004  0.0306  -5.1284   0.0000   0.0000   0.0000   0.0865
  -9.300  -0.5868   0.02721   0.02199  -0.0891  0.8985  0.0310  -5.0713   0.0000   0.0000   0.0000   0.0850
  -9.200  -0.5787   0.02679   0.02145  -0.0889  0.8969  0.0313  -5.0070   0.0000   0.0000   0.0000   0.0833
  -9.100  -0.5700   0.02648   0.02104  -0.0887  0.8953  0.0315  -4.9358   0.0000   0.0000   0.0000   0.0814
  -8.900  -0.5570   0.02410   0.01836  -0.0885  0.8912  0.0323  -4.8624   0.0000   0.0000   0.0000   0.0780
  -8.800  -0.5492   0.02329   0.01748  -0.0884  0.8894  0.0328  -4.8022   0.0000   0.0000   0.0000   0.0760
  -8.700  -0.5404   0.02281   0.01695  -0.0882  0.8878  0.0332  -4.7279   0.0000   0.0000   0.0000   0.0737
  -8.600  -0.5313   0.02244   0.01655  -0.0881  0.8864  0.0335  -4.6492   0.0000   0.0000   0.0000   0.0712
  -8.500  -0.5221   0.02212   0.01619  -0.0879  0.8850  0.0339  -4.5696   0.0000   0.0000   0.0000   0.0687
  -8.400  -0.5120   0.02181   0.01584  -0.0879  0.8832  0.0342  -4.4878   0.0000   0.0000   0.0000   0.0654
  -8.300  -0.5021   0.02149   0.01549  -0.0879  0.8813  0.0345  -4.4074   0.0000   0.0000   0.0000   0.0620
  -8.200  -0.4922   0.02118   0.01513  -0.0878  0.8796  0.0349  -4.3285   0.0000   0.0000   0.0000   0.0586
  -8.100  -0.4824   0.02086   0.01476  -0.0877  0.8779  0.0352  -4.2510   0.0000   0.0000   0.0000   0.0553
  -8.000  -0.4727   0.02054   0.01438  -0.0875  0.8765  0.0355  -4.1746   0.0000   0.0000   0.0000   0.0518
  -7.900  -0.4630   0.02022   0.01401  -0.0873  0.8751  0.0359  -4.1025   0.0000   0.0000   0.0000   0.0483
  -7.800  -0.4532   0.01991   0.01363  -0.0871  0.8738  0.0362  -4.0421   0.0000   0.0000   0.0000   0.0447
  -7.700  -0.4428   0.01958   0.01326  -0.0871  0.8718  0.0365  -3.9801   0.0000   0.0000   0.0000   0.0401
  -7.600  -0.4326   0.01926   0.01290  -0.0871  0.8699  0.0368  -3.9189   0.0000   0.0000   0.0000   0.0355
  -7.500  -0.4224   0.01895   0.01253  -0.0870  0.8682  0.0372  -3.8582   0.0000   0.0000   0.0000   0.0309
  -7.400  -0.4123   0.01865   0.01218  -0.0868  0.8666  0.0375  -3.7978   0.0000   0.0000   0.0000   0.0261
  -7.300  -0.4022   0.01836   0.01184  -0.0866  0.8652  0.0378  -3.7376   0.0000   0.0000   0.0000   0.0212
  -7.200  -0.3921   0.01809   0.01150  -0.0865  0.8638  0.0381  -3.6773   0.0000   0.0000   0.0000   0.0160
  -7.100  -0.3818   0.01783   0.01119  -0.0863  0.8625  0.0384  -3.6166   0.0000   0.0000   0.0000   0.0104
  -7.000  -0.3710   0.01758   0.01090  -0.0863  0.8606  0.0387  -3.5545   0.0000   0.0000   0.0000   0.0037
  -6.900  -0.3604   0.01735   0.01063  -0.0863  0.8588  0.0390  -3.4924   0.0000   0.0000   0.0000  -0.0031
  -6.800  -0.3497   0.01717   0.01040  -0.0862  0.8570  0.0393  -3.4289   0.0000   0.0000   0.0000  -0.0103
  -6.700  -0.3399   0.01673   0.00993  -0.0860  0.8555  0.0399  -3.3755   0.0000   0.0000   0.0000  -0.0171
  -6.600  -0.3304   0.01623   0.00942  -0.0858  0.8540  0.0408  -3.3227   0.0000   0.0000   0.0000  -0.0238
  -6.500  -0.3203   0.01598   0.00916  -0.0857  0.8527  0.0416  -3.2594   0.0000   0.0000   0.0000  -0.0317
  -6.400  -0.3098   0.01581   0.00897  -0.0856  0.8514  0.0424  -3.1937   0.0000   0.0000   0.0000  -0.0406
  -6.300  -0.2989   0.01564   0.00881  -0.0856  0.8493  0.0432  -3.1282   0.0000   0.0000   0.0000  -0.0510
  -6.200  -0.2881   0.01547   0.00862  -0.0856  0.8475  0.0441  -3.0651   0.0000   0.0000   0.0000  -0.0619
  -6.100  -0.2773   0.01528   0.00841  -0.0855  0.8457  0.0451  -3.0048   0.0000   0.0000   0.0000  -0.0733
  -6.000  -0.2666   0.01509   0.00819  -0.0854  0.8442  0.0461  -2.9463   0.0000   0.0000   0.0000  -0.0855
  -5.900  -0.2558   0.01495   0.00799  -0.0852  0.8428  0.0471  -2.8874   0.0000   0.0000   0.0000  -0.0989
  -5.800  -0.2459   0.01458   0.00761  -0.0851  0.8416  0.0484  -2.8356   0.0000   0.0000   0.0000  -0.1118
  -5.700  -0.2356   0.01434   0.00739  -0.0849  0.8403  0.0499  -2.7760   0.0000   0.0000   0.0000  -0.1268
  -5.600  -0.2245   0.01420   0.00726  -0.0850  0.8383  0.0514  -2.7132   0.0000   0.0000   0.0000  -0.1452
  -5.500  -0.2134   0.01407   0.00711  -0.0850  0.8365  0.0532  -2.6520   0.0000   0.0000   0.0000  -0.1652
  -5.400  -0.2023   0.01396   0.00697  -0.0849  0.8347  0.0548  -2.5915   0.0000   0.0000   0.0000  -0.1874
  -5.300  -0.1918   0.01372   0.00672  -0.0848  0.8332  0.0566  -2.5346   0.0000   0.0000   0.0000  -0.2104
  -5.200  -0.1812   0.01353   0.00655  -0.0847  0.8317  0.0585  -2.4741   0.0000   0.0000   0.0000  -0.2364
  -5.100  -0.1703   0.01341   0.00641  -0.0846  0.8304  0.0604  -2.4265   0.0000   0.0000   0.0000  -0.2664
  -5.000  -0.1593   0.01332   0.00628  -0.0845  0.8291  0.0624  -2.3799   0.0000   0.0000   0.0000  -0.3008
  -4.900  -0.1482   0.01318   0.00614  -0.0846  0.8269  0.0643  -2.3339   0.0000   0.0000   0.0000  -0.3418
  -4.800  -0.1374   0.01300   0.00599  -0.0846  0.8249  0.0665  -2.2863   0.0000   0.0000   0.0000  -0.3877
  -4.700  -0.1263   0.01289   0.00588  -0.0845  0.8231  0.0687  -2.2374   0.0000   0.0000   0.0000  -0.4427
  -4.600  -0.1152   0.01280   0.00576  -0.0845  0.8215  0.0711  -2.1897   0.0000   0.0000   0.0000  -0.5084
  -4.500  -0.1043   0.01264   0.00561  -0.0844  0.8201  0.0737  -2.1427   0.0000   0.0000   0.0000  -0.5858
  -4.400  -0.0933   0.01253   0.00551  -0.0843  0.8188  0.0765  -2.0938   0.0000   0.0000   0.0000  -0.6829
  -4.300  -0.0821   0.01246   0.00541  -0.0843  0.8173  0.0797  -2.0459   0.0000   0.0000   0.0000  -0.8092
  -4.200  -0.0710   0.01232   0.00532  -0.0843  0.8152  0.0831  -1.9979   0.0000   0.0000   0.0000  -0.9742
  -4.100  -0.0597   0.01224   0.00523  -0.0843  0.8133  0.0871  -1.9496   0.0000   0.0000   0.0000  -1.2037
  -4.000  -0.0487   0.01210   0.00512  -0.0843  0.8115  0.0911  -1.9022   0.0000   0.0000   0.0000  -1.5307
  -3.900  -0.0375   0.01201   0.00501  -0.0843  0.8099  0.0959  -1.8545   0.0000   0.0000   0.0000  -2.0573
  -3.800  -0.0266   0.01187   0.00490  -0.0842  0.8084  0.1007  -1.8070   0.0000   0.0000   0.0000  -3.0030
  -3.700  -0.0155   0.01176   0.00479  -0.0842  0.8071  0.1065  -1.7593   0.0000   0.0000   0.0000  -5.3233
  -3.600  -0.0043   0.01168   0.00473  -0.0842  0.8053  0.1128  -1.7111   0.0000   0.0000   0.0000  -19.9251
  -3.500   0.0069   0.01159   0.00469  -0.0842  0.8032  0.1196  -1.6631   0.0000   0.0000   0.0000  12.6688
  -3.400   0.0182   0.01149   0.00462  -0.0842  0.8012  0.1268  -1.6155   0.0000   0.0000   0.0000   4.9992
  -3.300   0.0293   0.01139   0.00454  -0.0842  0.7995  0.1341  -1.5683   0.0000   0.0000   0.0000   3.1881
  -3.200   0.0405   0.01128   0.00445  -0.0842  0.7979  0.1418  -1.5216   0.0000   0.0000   0.0000   2.3771
  -3.100   0.0516   0.01118   0.00436  -0.0842  0.7965  0.1500  -1.4750   0.0000   0.0000   0.0000   1.9158
  -3.000   0.0628   0.01108   0.00429  -0.0841  0.7950  0.1589  -1.4288   0.0000   0.0000   0.0000   1.6179
  -2.900   0.0740   0.01099   0.00426  -0.0842  0.7926  0.1685  -1.3829   0.0000   0.0000   0.0000   1.4100
  -2.800   0.0852   0.01090   0.00420  -0.0842  0.7903  0.1789  -1.3372   0.0000   0.0000   0.0000   1.2564
  -2.700   0.0964   0.01080   0.00413  -0.0842  0.7884  0.1897  -1.2919   0.0000   0.0000   0.0000   1.1388
  -2.600   0.1076   0.01070   0.00406  -0.0842  0.7867  0.2014  -1.2470   0.0000   0.0000   0.0000   1.0455
  -2.500   0.1188   0.01060   0.00399  -0.0841  0.7851  0.2139  -1.2022   0.0000   0.0000   0.0000   0.9696
  -2.400   0.1300   0.01051   0.00393  -0.0841  0.7835  0.2273  -1.1579   0.0000   0.0000   0.0000   0.9070
  -2.300   0.1412   0.01042   0.00391  -0.0842  0.7809  0.2417  -1.1140   0.0000   0.0000   0.0000   0.8548
  -2.200   0.1524   0.01032   0.00386  -0.0842  0.7787  0.2569  -1.0704   0.0000   0.0000   0.0000   0.8100
  -2.100   0.1636   0.01021   0.00381  -0.0842  0.7768  0.2734  -1.0271   0.0000   0.0000   0.0000   0.7713
  -2.000   0.1748   0.01010   0.00375  -0.0842  0.7751  0.2917  -0.9843   0.0000   0.0000   0.0000   0.7375
  -1.800   0.1971   0.00988   0.00366  -0.0842  0.7717  0.3356  -0.8998   0.0000   0.0000   0.0000   0.6816
  -1.700   0.2081   0.00977   0.00364  -0.0842  0.7691  0.3597  -0.8585   0.0000   0.0000   0.0000   0.6585
  -1.600   0.2191   0.00964   0.00361  -0.0842  0.7669  0.3872  -0.8175   0.0000   0.0000   0.0000   0.6377
  -1.500   0.2300   0.00949   0.00356  -0.0842  0.7649  0.4178  -0.7771   0.0000   0.0000   0.0000   0.6188
  -1.400   0.2409   0.00934   0.00352  -0.0841  0.7631  0.4519  -0.7473   0.0000   0.0000   0.0000   0.6015
  -1.300   0.2518   0.00920   0.00348  -0.0840  0.7614  0.4888  -0.7191   0.0000   0.0000   0.0000   0.5858
  -1.200   0.2624   0.00906   0.00349  -0.0840  0.7584  0.5264  -0.6913   0.0000   0.0000   0.0000   0.5716
  -1.100   0.2731   0.00894   0.00348  -0.0839  0.7559  0.5634  -0.6637   0.0000   0.0000   0.0000   0.5583
  -1.000   0.2837   0.00881   0.00347  -0.0837  0.7538  0.5974  -0.6375   0.0000   0.0000   0.0000   0.5459
  -0.900   0.2943   0.00870   0.00345  -0.0835  0.7519  0.6318  -0.6452   0.0000   0.0000   0.0000   0.5342
  -0.800   0.3049   0.00860   0.00344  -0.0832  0.7501  0.6637  -0.6529   0.0000   0.0000   0.0000   0.5233
  -0.700   0.3154   0.00853   0.00347  -0.0830  0.7472  0.6920  -0.6604   0.0000   0.0000   0.0000   0.5133
  -0.600   0.3259   0.00846   0.00347  -0.0828  0.7446  0.7154  -0.6686   0.0000   0.0000   0.0000   0.5038
  -0.500   0.3365   0.00840   0.00346  -0.0825  0.7424  0.7363  -0.6773   0.0000   0.0000   0.0000   0.4948
  -0.400   0.3472   0.00835   0.00343  -0.0822  0.7405  0.7553  -0.6861   0.0000   0.0000   0.0000   0.4863
  -0.300   0.3577   0.00831   0.00344  -0.0820  0.7381  0.7729  -0.6947   0.0000   0.0000   0.0000   0.4783
  -0.200   0.3681   0.00826   0.00345  -0.0817  0.7351  0.7900  -0.7032   0.0000   0.0000   0.0000   0.4709
  -0.100   0.3785   0.00822   0.00344  -0.0813  0.7325  0.8066  -0.7127   0.0000   0.0000   0.0000   0.4637
   0.000   0.3889   0.00818   0.00342  -0.0810  0.7303  0.8219  -0.7228   0.0000   0.0000   0.0000   0.4569
   0.100   0.3992   0.00815   0.00340  -0.0806  0.7283  0.8360  -0.7329   0.0000   0.0000   0.0000   0.4505
   0.200   0.4093   0.00812   0.00342  -0.0803  0.7250  0.8495  -0.7428   0.0000   0.0000   0.0000   0.4444
   0.300   0.4193   0.00809   0.00341  -0.0799  0.7222  0.8633  -0.7527   0.0000   0.0000   0.0000   0.4386
   0.400   0.4293   0.00806   0.00339  -0.0794  0.7198  0.8775  -0.7626   0.0000   0.0000   0.0000   0.4329
   0.500   0.4391   0.00803   0.00336  -0.0789  0.7176  0.8916  -0.7726   0.0000   0.0000   0.0000   0.4275
   0.600   0.4488   0.00801   0.00337  -0.0784  0.7139  0.9061  -0.7823   0.0000   0.0000   0.0000   0.4224
   0.800   0.4703   0.00795   0.00331  -0.0778  0.7081  0.9347  -0.8033   0.0000   0.0000   0.0000   0.4127
   0.900   0.4833   0.00793   0.00329  -0.0780  0.7049  0.9487  -0.8151   0.0000   0.0000   0.0000   0.4086
   1.000   0.4979   0.00791   0.00327  -0.0786  0.7011  0.9617  -0.8278   0.0000   0.0000   0.0000   0.4049
   1.100   0.5142   0.00789   0.00323  -0.0795  0.6979  0.9725  -0.8424   0.0000   0.0000   0.0000   0.4017
   1.200   0.5312   0.00788   0.00319  -0.0807  0.6946  0.9821  -0.8575   0.0000   0.0000   0.0000   0.3988
   1.300   0.5486   0.00787   0.00317  -0.0820  0.6904  0.9904  -0.8729   0.0000   0.0000   0.0000   0.3962
   1.400   0.5661   0.00786   0.00312  -0.0833  0.6869  0.9975  -0.8885   0.0000   0.0000   0.0000   0.3938
   1.500   0.5792   0.00786   0.00310  -0.0837  0.6834  1.0000  -0.9012   0.0000   0.0000   0.0000   0.3911
   1.600   0.5894   0.00788   0.00310  -0.0836  0.6795  1.0000  -0.9140   0.0000   0.0000   0.0000   0.3882
   1.700   0.5999   0.00790   0.00309  -0.0834  0.6762  1.0000  -0.9273   0.0000   0.0000   0.0000   0.3854
   1.800   0.6105   0.00792   0.00308  -0.0833  0.6728  1.0000  -0.9407   0.0000   0.0000   0.0000   0.3827
   1.900   0.6211   0.00794   0.00309  -0.0832  0.6688  1.0000  -0.9542   0.0000   0.0000   0.0000   0.3801
   2.000   0.6318   0.00796   0.00308  -0.0832  0.6653  1.0000  -0.9684   0.0000   0.0000   0.0000   0.3776
   2.100   0.6426   0.00799   0.00309  -0.0831  0.6616  1.0000  -0.9825   0.0000   0.0000   0.0000   0.3751
   2.200   0.6534   0.00802   0.00311  -0.0830  0.6573  1.0000  -0.9967   0.0000   0.0000   0.0000   0.3728
   2.300   0.6642   0.00805   0.00310  -0.0829  0.6536  1.0000  -1.0115   0.0000   0.0000   0.0000   0.3705
   2.400   0.6751   0.00808   0.00312  -0.0829  0.6491  1.0000  -1.0264   0.0000   0.0000   0.0000   0.3683
   2.500   0.6859   0.00811   0.00312  -0.0828  0.6447  1.0000  -1.0413   0.0000   0.0000   0.0000   0.3661
   2.600   0.6968   0.00814   0.00313  -0.0827  0.6405  1.0000  -1.0563   0.0000   0.0000   0.0000   0.3640
   2.700   0.7076   0.00817   0.00315  -0.0827  0.6354  1.0000  -1.0713   0.0000   0.0000   0.0000   0.3620
   2.800   0.7184   0.00822   0.00314  -0.0826  0.6312  1.0000  -1.0864   0.0000   0.0000   0.0000   0.3600
   2.900   0.7293   0.00825   0.00317  -0.0825  0.6257  1.0000  -1.1018   0.0000   0.0000   0.0000   0.3581
   3.000   0.7401   0.00829   0.00318  -0.0824  0.6211  1.0000  -1.1181   0.0000   0.0000   0.0000   0.3562
   3.100   0.7509   0.00833   0.00321  -0.0823  0.6153  1.0000  -1.1344   0.0000   0.0000   0.0000   0.3544
   3.200   0.7616   0.00838   0.00322  -0.0822  0.6103  1.0000  -1.1508   0.0000   0.0000   0.0000   0.3526
   3.300   0.7725   0.00843   0.00326  -0.0822  0.6048  1.0000  -1.1672   0.0000   0.0000   0.0000   0.3509
   3.400   0.7832   0.00848   0.00330  -0.0821  0.5999  1.0000  -1.1844   0.0000   0.0000   0.0000   0.3492
   3.500   0.7940   0.00853   0.00333  -0.0820  0.5946  1.0000  -1.2028   0.0000   0.0000   0.0000   0.3476
   3.600   0.8048   0.00859   0.00336  -0.0820  0.5896  1.0000  -1.2213   0.0000   0.0000   0.0000   0.3460
   3.700   0.8156   0.00865   0.00340  -0.0819  0.5842  1.0000  -1.2398   0.0000   0.0000   0.0000   0.3445
   3.800   0.8263   0.00872   0.00344  -0.0818  0.5790  1.0000  -1.2583   0.0000   0.0000   0.0000   0.3430
   3.900   0.8370   0.00878   0.00348  -0.0817  0.5735  1.0000  -1.2769   0.0000   0.0000   0.0000   0.3415
   4.000   0.8476   0.00885   0.00353  -0.0816  0.5680  1.0000  -1.2955   0.0000   0.0000   0.0000   0.3401
   4.100   0.8583   0.00891   0.00357  -0.0816  0.5623  1.0000  -1.3142   0.0000   0.0000   0.0000   0.3387
   4.200   0.8689   0.00899   0.00362  -0.0815  0.5568  1.0000  -1.3353   0.0000   0.0000   0.0000   0.3373
   4.300   0.8795   0.00906   0.00367  -0.0814  0.5510  1.0000  -1.3570   0.0000   0.0000   0.0000   0.3359
   4.400   0.8899   0.00915   0.00372  -0.0812  0.5454  1.0000  -1.3786   0.0000   0.0000   0.0000   0.3346
   4.500   0.9005   0.00922   0.00378  -0.0812  0.5392  1.0000  -1.4004   0.0000   0.0000   0.0000   0.3333
   4.600   0.9109   0.00931   0.00384  -0.0810  0.5335  1.0000  -1.4220   0.0000   0.0000   0.0000   0.3320
   4.700   0.9214   0.00939   0.00391  -0.0809  0.5269  1.0000  -1.4452   0.0000   0.0000   0.0000   0.3308
   4.800   0.9317   0.00948   0.00397  -0.0808  0.5207  1.0000  -1.4693   0.0000   0.0000   0.0000   0.3296
   4.900   0.9420   0.00958   0.00404  -0.0807  0.5141  1.0000  -1.4935   0.0000   0.0000   0.0000   0.3284
   5.000   0.9523   0.00967   0.00411  -0.0805  0.5074  1.0000  -1.5179   0.0000   0.0000   0.0000   0.3272
   5.200   0.9727   0.00987   0.00429  -0.0803  0.4939  1.0000  -1.5666   0.0000   0.0000   0.0000   0.3249
   5.300   0.9829   0.00998   0.00437  -0.0801  0.4874  1.0000  -1.5912   0.0000   0.0000   0.0000   0.3238
   5.400   0.9929   0.01008   0.00445  -0.0799  0.4807  1.0000  -1.6174   0.0000   0.0000   0.0000   0.3227
   5.500   1.0031   0.01019   0.00453  -0.0798  0.4739  1.0000  -1.6438   0.0000   0.0000   0.0000   0.3216
   5.600   1.0130   0.01031   0.00462  -0.0796  0.4675  1.0000  -1.6699   0.0000   0.0000   0.0000   0.3205
   5.700   1.0230   0.01042   0.00471  -0.0795  0.4604  1.0000  -1.6963   0.0000   0.0000   0.0000   0.3195
   5.800   1.0329   0.01054   0.00480  -0.0793  0.4534  1.0000  -1.7229   0.0000   0.0000   0.0000   0.3184
   5.900   1.0426   0.01067   0.00490  -0.0791  0.4463  1.0000  -1.7526   0.0000   0.0000   0.0000   0.3174
   6.000   1.0525   0.01079   0.00500  -0.0789  0.4387  1.0000  -1.7838   0.0000   0.0000   0.0000   0.3164
   6.100   1.0622   0.01092   0.00510  -0.0787  0.4315  1.0000  -1.8151   0.0000   0.0000   0.0000   0.3154
   6.200   1.0717   0.01106   0.00521  -0.0785  0.4245  1.0000  -1.8460   0.0000   0.0000   0.0000   0.3144
   6.300   1.0815   0.01119   0.00532  -0.0783  0.4169  1.0000  -1.8776   0.0000   0.0000   0.0000   0.3134
   6.400   1.0910   0.01133   0.00543  -0.0781  0.4095  1.0000  -1.9089   0.0000   0.0000   0.0000   0.3125
   6.500   1.1002   0.01148   0.00555  -0.0778  0.4022  1.0000  -1.9410   0.0000   0.0000   0.0000   0.3115
   6.600   1.1096   0.01163   0.00567  -0.0776  0.3943  1.0000  -1.9808   0.0000   0.0000   0.0000   0.3106
   6.700   1.1190   0.01178   0.00579  -0.0774  0.3865  1.0000  -2.0218   0.0000   0.0000   0.0000   0.3096
   6.800   1.1281   0.01195   0.00592  -0.0771  0.3791  1.0000  -2.0626   0.0000   0.0000   0.0000   0.3087
   6.900   1.1370   0.01212   0.00606  -0.0768  0.3715  1.0000  -2.1034   0.0000   0.0000   0.0000   0.3078
   7.000   1.1463   0.01227   0.00619  -0.0766  0.3638  1.0000  -2.1451   0.0000   0.0000   0.0000   0.3069
   7.100   1.1554   0.01243   0.00633  -0.0763  0.3565  1.0000  -2.1864   0.0000   0.0000   0.0000   0.3060
   7.200   1.1640   0.01262   0.00648  -0.0759  0.3492  1.0000  -2.2273   0.0000   0.0000   0.0000   0.3051
   7.300   1.1730   0.01279   0.00666  -0.0757  0.3416  1.0000  -2.2717   0.0000   0.0000   0.0000   0.3042
   7.400   1.1817   0.01297   0.00681  -0.0754  0.3339  1.0000  -2.3193   0.0000   0.0000   0.0000   0.3033
   7.500   1.1902   0.01316   0.00697  -0.0750  0.3263  1.0000  -2.3663   0.0000   0.0000   0.0000   0.3025
   7.600   1.1984   0.01337   0.00714  -0.0746  0.3187  1.0000  -2.4133   0.0000   0.0000   0.0000   0.3016
   7.700   1.2070   0.01355   0.00730  -0.0743  0.3110  1.0000  -2.4613   0.0000   0.0000   0.0000   0.3007
   7.800   1.2152   0.01376   0.00748  -0.0739  0.3035  1.0000  -2.5088   0.0000   0.0000   0.0000   0.2999
   7.900   1.2231   0.01398   0.00766  -0.0735  0.2962  1.0000  -2.5555   0.0000   0.0000   0.0000   0.2990
   8.000   1.2313   0.01418   0.00783  -0.0731  0.2885  1.0000  -2.6036   0.0000   0.0000   0.0000   0.2982
   8.100   1.2393   0.01439   0.00802  -0.0727  0.2812  1.0000  -2.6513   0.0000   0.0000   0.0000   0.2973
   8.200   1.2469   0.01462   0.00821  -0.0723  0.2742  1.0000  -2.6982   0.0000   0.0000   0.0000   0.2964
   8.300   1.2545   0.01485   0.00841  -0.0718  0.2671  1.0000  -2.7454   0.0000   0.0000   0.0000   0.2956
   8.400   1.2622   0.01507   0.00860  -0.0714  0.2602  1.0000  -2.7932   0.0000   0.0000   0.0000   0.2948
   8.500   1.2694   0.01532   0.00882  -0.0709  0.2539  1.0000  -2.8398   0.0000   0.0000   0.0000   0.2939
   8.600   1.2768   0.01554   0.00902  -0.0704  0.2474  1.0000  -2.8874   0.0000   0.0000   0.0000   0.2931
   8.700   1.2841   0.01577   0.00923  -0.0700  0.2413  1.0000  -2.9348   0.0000   0.0000   0.0000   0.2922
   8.800   1.2905   0.01604   0.00946  -0.0693  0.2354  1.0000  -2.9800   0.0000   0.0000   0.0000   0.2913
   8.900   1.2972   0.01626   0.00967  -0.0687  0.2292  1.0000  -3.0264   0.0000   0.0000   0.0000   0.2904
   9.000   1.3030   0.01653   0.00991  -0.0680  0.2237  1.0000  -3.0703   0.0000   0.0000   0.0000   0.2895
   9.100   1.3093   0.01678   0.01015  -0.0674  0.2176  1.0000  -3.1162   0.0000   0.0000   0.0000   0.2886
   9.200   1.3155   0.01705   0.01039  -0.0668  0.2120  1.0000  -3.1615   0.0000   0.0000   0.0000   0.2878
   9.300   1.3213   0.01734   0.01066  -0.0662  0.2062  1.0000  -3.2064   0.0000   0.0000   0.0000   0.2869
   9.400   1.3278   0.01760   0.01094  -0.0656  0.2005  1.0000  -3.2529   0.0000   0.0000   0.0000   0.2861
   9.600   1.3396   0.01819   0.01150  -0.0644  0.1898  1.0000  -3.3438   0.0000   0.0000   0.0000   0.2845
   9.700   1.3449   0.01854   0.01181  -0.0638  0.1851  1.0000  -3.3876   0.0000   0.0000   0.0000   0.2836
   9.800   1.3512   0.01882   0.01210  -0.0633  0.1798  1.0000  -3.4345   0.0000   0.0000   0.0000   0.2829
   9.900   1.3565   0.01918   0.01243  -0.0626  0.1752  1.0000  -3.4787   0.0000   0.0000   0.0000   0.2821
  10.000   1.3624   0.01949   0.01273  -0.0621  0.1702  1.0000  -3.5249   0.0000   0.0000   0.0000   0.2813
  10.100   1.3676   0.01986   0.01308  -0.0615  0.1658  1.0000  -3.5689   0.0000   0.0000   0.0000   0.2805
  10.200   1.3733   0.02020   0.01341  -0.0610  0.1611  1.0000  -3.6149   0.0000   0.0000   0.0000   0.2798
  10.300   1.3782   0.02059   0.01378  -0.0604  0.1569  1.0000  -3.6585   0.0000   0.0000   0.0000   0.2791
  10.400   1.3839   0.02094   0.01413  -0.0599  0.1524  1.0000  -3.7045   0.0000   0.0000   0.0000   0.2783
  10.500   1.3883   0.02137   0.01453  -0.0593  0.1486  1.0000  -3.7471   0.0000   0.0000   0.0000   0.2776
  10.600   1.3943   0.02171   0.01488  -0.0588  0.1441  1.0000  -3.7941   0.0000   0.0000   0.0000   0.2769
  10.700   1.3984   0.02217   0.01531  -0.0582  0.1404  1.0000  -3.8360   0.0000   0.0000   0.0000   0.2762
  10.800   1.4045   0.02250   0.01566  -0.0577  0.1362  1.0000  -3.8837   0.0000   0.0000   0.0000   0.2755
  10.900   1.4087   0.02296   0.01610  -0.0571  0.1325  1.0000  -3.9262   0.0000   0.0000   0.0000   0.2748
  11.000   1.4143   0.02333   0.01648  -0.0567  0.1286  1.0000  -3.9726   0.0000   0.0000   0.0000   0.2741
  11.100   1.4187   0.02379   0.01692  -0.0561  0.1250  1.0000  -4.0158   0.0000   0.0000   0.0000   0.2734
  11.200   1.4237   0.02421   0.01734  -0.0556  0.1215  1.0000  -4.0605   0.0000   0.0000   0.0000   0.2728
  11.300   1.4283   0.02466   0.01779  -0.0551  0.1180  1.0000  -4.1043   0.0000   0.0000   0.0000   0.2721
  11.400   1.4324   0.02514   0.01826  -0.0545  0.1149  1.0000  -4.1468   0.0000   0.0000   0.0000   0.2714
  11.500   1.4371   0.02559   0.01874  -0.0540  0.1115  1.0000  -4.1911   0.0000   0.0000   0.0000   0.2708
  11.700   1.4454   0.02659   0.01973  -0.0530  0.1054  1.0000  -4.2761   0.0000   0.0000   0.0000   0.2695
  11.800   1.4490   0.02713   0.02026  -0.0524  0.1025  1.0000  -4.3171   0.0000   0.0000   0.0000   0.2688
  11.900   1.4528   0.02765   0.02079  -0.0519  0.0998  1.0000  -4.3589   0.0000   0.0000   0.0000   0.2682
  12.000   1.4567   0.02818   0.02133  -0.0514  0.0969  1.0000  -4.4007   0.0000   0.0000   0.0000   0.2675
  12.200   1.4635   0.02932   0.02247  -0.0503  0.0918  1.0000  -4.4817   0.0000   0.0000   0.0000   0.2663
  12.300   1.4665   0.02993   0.02308  -0.0498  0.0894  1.0000  -4.5240   0.0000   0.0000   0.0000   0.2657
  12.400   1.4693   0.03056   0.02371  -0.0493  0.0872  1.0000  -4.5655   0.0000   0.0000   0.0000   0.2651
  12.500   1.4731   0.03111   0.02428  -0.0488  0.0846  1.0000  -4.6104   0.0000   0.0000   0.0000   0.2645
  12.600   1.4753   0.03180   0.02496  -0.0483  0.0825  1.0000  -4.6503   0.0000   0.0000   0.0000   0.2639
  12.700   1.4784   0.03241   0.02559  -0.0478  0.0802  1.0000  -4.6930   0.0000   0.0000   0.0000   0.2633
  12.800   1.4813   0.03306   0.02624  -0.0473  0.0780  1.0000  -4.7350   0.0000   0.0000   0.0000   0.2627
  12.900   1.4827   0.03383   0.02701  -0.0468  0.0763  1.0000  -4.7718   0.0000   0.0000   0.0000   0.2621
  13.000   1.4859   0.03446   0.02766  -0.0464  0.0742  1.0000  -4.8144   0.0000   0.0000   0.0000   0.2616
  13.100   1.4881   0.03517   0.02838  -0.0459  0.0722  1.0000  -4.8540   0.0000   0.0000   0.0000   0.2610
  13.200   1.4888   0.03602   0.02922  -0.0454  0.0707  1.0000  -4.8885   0.0000   0.0000   0.0000   0.2604
  13.300   1.4918   0.03668   0.02992  -0.0450  0.0687  1.0000  -4.9303   0.0000   0.0000   0.0000   0.2599
  13.400   1.4937   0.03744   0.03069  -0.0445  0.0670  1.0000  -4.9686   0.0000   0.0000   0.0000   0.2594
  13.500   1.4941   0.03834   0.03159  -0.0440  0.0657  1.0000  -5.0016   0.0000   0.0000   0.0000   0.2588
  13.600   1.4963   0.03909   0.03236  -0.0436  0.0640  1.0000  -5.0402   0.0000   0.0000   0.0000   0.2583
  13.700   1.4982   0.03988   0.03319  -0.0433  0.0624  1.0000  -5.0781   0.0000   0.0000   0.0000   0.2578
  13.800   1.4986   0.04080   0.03412  -0.0428  0.0612  1.0000  -5.1110   0.0000   0.0000   0.0000   0.2573
  13.900   1.4991   0.04173   0.03506  -0.0424  0.0600  1.0000  -5.1433   0.0000   0.0000   0.0000   0.2568
  14.000   1.5010   0.04253   0.03590  -0.0421  0.0586  1.0000  -5.1807   0.0000   0.0000   0.0000   0.2564
  14.100   1.5019   0.04345   0.03683  -0.0417  0.0574  1.0000  -5.2146   0.0000   0.0000   0.0000   0.2559
  14.200   1.5014   0.04451   0.03790  -0.0414  0.0565  1.0000  -5.2436   0.0000   0.0000   0.0000   0.2555
  14.300   1.5017   0.04551   0.03892  -0.0411  0.0554  1.0000  -5.2746   0.0000   0.0000   0.0000   0.2551
  14.400   1.5032   0.04641   0.03986  -0.0408  0.0542  1.0000  -5.3095   0.0000   0.0000   0.0000   0.2546
  14.500   1.5038   0.04741   0.04088  -0.0405  0.0532  1.0000  -5.3420   0.0000   0.0000   0.0000   0.2542
  14.600   1.5033   0.04853   0.04201  -0.0403  0.0525  1.0000  -5.3704   0.0000   0.0000   0.0000   0.2539
  14.700   1.5017   0.04979   0.04327  -0.0400  0.0518  1.0000  -5.3937   0.0000   0.0000   0.0000   0.2535
  14.800   1.5034   0.05071   0.04425  -0.0398  0.0508  1.0000  -5.4286   0.0000   0.0000   0.0000   0.2531
  14.900   1.5041   0.05175   0.04532  -0.0397  0.0499  1.0000  -5.4635   0.0000   0.0000   0.0000   0.2528
  15.000   1.5043   0.05286   0.04645  -0.0395  0.0491  1.0000  -5.4967   0.0000   0.0000   0.0000   0.2525
  15.100   1.5035   0.05408   0.04769  -0.0394  0.0485  1.0000  -5.5261   0.0000   0.0000   0.0000   0.2522
  15.200   1.5016   0.05544   0.04905  -0.0393  0.0479  1.0000  -5.5503   0.0000   0.0000   0.0000   0.2519
  15.300   1.5021   0.05655   0.05021  -0.0392  0.0472  1.0000  -5.5834   0.0000   0.0000   0.0000   0.2516
  15.400   1.5025   0.05768   0.05138  -0.0391  0.0465  1.0000  -5.6161   0.0000   0.0000   0.0000   0.2513
  15.500   1.5024   0.05887   0.05261  -0.0390  0.0458  1.0000  -5.6474   0.0000   0.0000   0.0000   0.2511
  15.600   1.5019   0.06012   0.05388  -0.0390  0.0453  1.0000  -5.6771   0.0000   0.0000   0.0000   0.2508
  15.700   1.5008   0.06145   0.05522  -0.0390  0.0448  1.0000  -5.7045   0.0000   0.0000   0.0000   0.2506
  15.800   1.4988   0.06289   0.05667  -0.0390  0.0444  1.0000  -5.7275   0.0000   0.0000   0.0000   0.2504
  15.900   1.4977   0.06425   0.05805  -0.0390  0.0439  1.0000  -5.7530   0.0000   0.0000   0.0000   0.2502
  16.000   1.4978   0.06547   0.05933  -0.0390  0.0433  1.0000  -5.7834   0.0000   0.0000   0.0000   0.2500
  16.100   1.4974   0.06676   0.06066  -0.0391  0.0428  1.0000  -5.8119   0.0000   0.0000   0.0000   0.2498
  16.200   1.4968   0.06808   0.06203  -0.0391  0.0423  1.0000  -5.8397   0.0000   0.0000   0.0000   0.2496
  16.300   1.4959   0.06945   0.06342  -0.0392  0.0419  1.0000  -5.8667   0.0000   0.0000   0.0000   0.2495
  16.400   1.4948   0.07085   0.06484  -0.0393  0.0415  1.0000  -5.8928   0.0000   0.0000   0.0000   0.2494
  16.500   1.4932   0.07231   0.06631  -0.0395  0.0411  1.0000  -5.9169   0.0000   0.0000   0.0000   0.2492
  16.600   1.4909   0.07384   0.06784  -0.0396  0.0408  1.0000  -5.9374   0.0000   0.0000   0.0000   0.2491
  16.700   1.4905   0.07519   0.06925  -0.0397  0.0403  1.0000  -5.9639   0.0000   0.0000   0.0000   0.2490
  16.800   1.4900   0.07656   0.07068  -0.0399  0.0399  1.0000  -5.9905   0.0000   0.0000   0.0000   0.2489
  16.900   1.4893   0.07795   0.07211  -0.0401  0.0395  1.0000  -6.0167   0.0000   0.0000   0.0000   0.2488
  17.000   1.4884   0.07938   0.07357  -0.0403  0.0391  1.0000  -6.0423   0.0000   0.0000   0.0000   0.2487
  17.100   1.4875   0.08081   0.07503  -0.0405  0.0387  1.0000  -6.0680   0.0000   0.0000   0.0000   0.2487
  17.200   1.4864   0.08227   0.07650  -0.0408  0.0383  1.0000  -6.0932   0.0000   0.0000   0.0000   0.2486
  17.300   1.4852   0.08372   0.07797  -0.0410  0.0380  1.0000  -6.1182   0.0000   0.0000   0.0000   0.2485
  17.400   1.4838   0.08519   0.07944  -0.0412  0.0378  1.0000  -6.1419   0.0000   0.0000   0.0000   0.2485
  17.500   1.4824   0.08661   0.08087  -0.0414  0.0375  1.0000  -6.1654   0.0000   0.0000   0.0000   0.2484
  17.600   1.4816   0.08809   0.08241  -0.0417  0.0371  1.0000  -6.1899   0.0000   0.0000   0.0000   0.2484
  17.700   1.4807   0.08957   0.08394  -0.0420  0.0368  1.0000  -6.2276   0.0000   0.0000   0.0000   0.2484
  17.800   1.4799   0.09103   0.08545  -0.0423  0.0365  1.0000  -6.2658   0.0000   0.0000   0.0000   0.2484
  17.900   1.4791   0.09249   0.08694  -0.0426  0.0362  1.0000  -6.3043   0.0000   0.0000   0.0000   0.2483
  18.000   1.4784   0.09392   0.08840  -0.0430  0.0359  1.0000  -6.3439   0.0000   0.0000   0.0000   0.2483
  18.100   1.4778   0.09534   0.08985  -0.0433  0.0356  1.0000  -6.3838   0.0000   0.0000   0.0000   0.2483
  18.200   1.4773   0.09672   0.09124  -0.0436  0.0354  1.0000  -6.4254   0.0000   0.0000   0.0000   0.2483
  18.300   1.4770   0.09806   0.09259  -0.0439  0.0351  1.0000  -6.4681   0.0000   0.0000   0.0000   0.2483
  18.400   1.4770   0.09932   0.09385  -0.0441  0.0349  1.0000  -6.5135   0.0000   0.0000   0.0000   0.2482
  18.500   1.4776   0.10044   0.09495  -0.0443  0.0347  1.0000  -6.5631   0.0000   0.0000   0.0000   0.2480
  18.600   1.4777   0.10169   0.09622  -0.0445  0.0344  1.0000  -6.6074   0.0000   0.0000   0.0000   0.2479
  18.700   1.4766   0.10327   0.09787  -0.0450  0.0342  1.0000  -6.6410   0.0000   0.0000   0.0000   0.2480
  18.800   1.4758   0.10479   0.09945  -0.0455  0.0340  1.0000  -6.6770   0.0000   0.0000   0.0000   0.2481
  18.900   1.4751   0.10627   0.10099  -0.0459  0.0337  1.0000  -6.7141   0.0000   0.0000   0.0000   0.2482
  19.000   1.4746   0.10771   0.10247  -0.0464  0.0335  1.0000  -6.7530   0.0000   0.0000   0.0000   0.2483
  19.100   1.4745   0.10909   0.10389  -0.0468  0.0332  1.0000  -6.7940   0.0000   0.0000   0.0000   0.2483
  19.200   1.4744   0.11045   0.10527  -0.0472  0.0330  1.0000  -6.8362   0.0000   0.0000   0.0000   0.2484
  19.300   1.4746   0.11176   0.10661  -0.0477  0.0328  1.0000  -6.8806   0.0000   0.0000   0.0000   0.2484
  19.400   1.4752   0.11300   0.10787  -0.0481  0.0326  1.0000  -6.9278   0.0000   0.0000   0.0000   0.2484
  19.500   1.4761   0.11417   0.10904  -0.0484  0.0324  1.0000  -6.9784   0.0000   0.0000   0.0000   0.2484
  19.600   1.4776   0.11519   0.11006  -0.0487  0.0321  1.0000  -7.0344   0.0000   0.0000   0.0000   0.2483
  19.700   1.4803   0.11597   0.11082  -0.0488  0.0319  1.0000  -7.0995   0.0000   0.0000   0.0000   0.2480
  19.800   1.4839   0.11649   0.11130  -0.0487  0.0317  1.0000  -7.1731   0.0000   0.0000   0.0000   0.2476
  19.900   1.4820   0.11827   0.11316  -0.0495  0.0315  1.0000  -7.1980   0.0000   0.0000   0.0000   0.2480
  20.000   1.4804   0.11999   0.11495  -0.0503  0.0313  1.0000  -7.2254   0.0000   0.0000   0.0000   0.2483


