xflr5 v6.57

 Calculated polar for: QX0123

 1 1 Reynolds number fixed          Mach number fixed         

 xtrf =   1.000 (top)        1.000 (bottom)
 Mach =   0.000     Re =     1.000 e 6     Ncrit =   9.000

  alpha     CL        CD       CDp       Cm    Top Xtr Bot Xtr   Cpmin    Chinge    XCp    
 ------- -------- --------- --------- -------- ------- ------- -------- --------- ---------
 -10.000  -0.7277   0.01623   0.01108  -0.0794  0.8430  0.0203  -6.5603   0.0000   0.0000   0.0000   0.1279
  -9.900  -0.7170   0.01611   0.01095  -0.0793  0.8419  0.0206  -6.4518   0.0000   0.0000   0.0000   0.1264
  -9.800  -0.7062   0.01601   0.01083  -0.0793  0.8407  0.0209  -6.3433   0.0000   0.0000   0.0000   0.1248
  -9.700  -0.6953   0.01591   0.01072  -0.0794  0.8395  0.0212  -6.2345   0.0000   0.0000   0.0000   0.1230
  -9.600  -0.6843   0.01580   0.01060  -0.0794  0.8382  0.0216  -6.1264   0.0000   0.0000   0.0000   0.1212
  -9.500  -0.6733   0.01569   0.01048  -0.0794  0.8368  0.0219  -6.0196   0.0000   0.0000   0.0000   0.1193
  -9.400  -0.6624   0.01558   0.01035  -0.0794  0.8355  0.0222  -5.9143   0.0000   0.0000   0.0000   0.1174
  -9.300  -0.6515   0.01545   0.01020  -0.0794  0.8342  0.0224  -5.8108   0.0000   0.0000   0.0000   0.1155
  -9.200  -0.6408   0.01531   0.01004  -0.0794  0.8329  0.0227  -5.7095   0.0000   0.0000   0.0000   0.1135
  -9.100  -0.6300   0.01516   0.00985  -0.0794  0.8317  0.0229  -5.6099   0.0000   0.0000   0.0000   0.1115
  -9.000  -0.6193   0.01501   0.00967  -0.0794  0.8306  0.0231  -5.5110   0.0000   0.0000   0.0000   0.1094
  -8.900  -0.6086   0.01487   0.00950  -0.0793  0.8294  0.0232  -5.4128   0.0000   0.0000   0.0000   0.1072
  -8.800  -0.5977   0.01471   0.00932  -0.0793  0.8282  0.0234  -5.3145   0.0000   0.0000   0.0000   0.1048
  -8.700  -0.5867   0.01456   0.00915  -0.0793  0.8268  0.0235  -5.2168   0.0000   0.0000   0.0000   0.1023
  -8.600  -0.5758   0.01441   0.00898  -0.0794  0.8254  0.0236  -5.1197   0.0000   0.0000   0.0000   0.0998
  -8.500  -0.5649   0.01426   0.00881  -0.0793  0.8239  0.0237  -5.0233   0.0000   0.0000   0.0000   0.0972
  -8.400  -0.5540   0.01412   0.00864  -0.0793  0.8225  0.0238  -4.9275   0.0000   0.0000   0.0000   0.0944
  -8.300  -0.5431   0.01397   0.00847  -0.0793  0.8212  0.0239  -4.8325   0.0000   0.0000   0.0000   0.0916
  -8.200  -0.5322   0.01384   0.00830  -0.0793  0.8199  0.0240  -4.7382   0.0000   0.0000   0.0000   0.0886
  -8.100  -0.5213   0.01370   0.00814  -0.0793  0.8187  0.0240  -4.6475   0.0000   0.0000   0.0000   0.0856
  -8.000  -0.5103   0.01357   0.00798  -0.0793  0.8175  0.0241  -4.5680   0.0000   0.0000   0.0000   0.0823
  -7.900  -0.4992   0.01343   0.00783  -0.0793  0.8161  0.0241  -4.4886   0.0000   0.0000   0.0000   0.0788
  -7.800  -0.4881   0.01328   0.00767  -0.0793  0.8146  0.0242  -4.4098   0.0000   0.0000   0.0000   0.0751
  -7.700  -0.4779   0.01294   0.00728  -0.0793  0.8132  0.0244  -4.3444   0.0000   0.0000   0.0000   0.0717
  -7.600  -0.4675   0.01261   0.00691  -0.0792  0.8118  0.0246  -4.2791   0.0000   0.0000   0.0000   0.0682
  -7.500  -0.4570   0.01233   0.00659  -0.0792  0.8104  0.0249  -4.2113   0.0000   0.0000   0.0000   0.0644
  -7.400  -0.4464   0.01209   0.00631  -0.0791  0.8091  0.0251  -4.1419   0.0000   0.0000   0.0000   0.0603
  -7.300  -0.4356   0.01188   0.00607  -0.0791  0.8079  0.0254  -4.0713   0.0000   0.0000   0.0000   0.0559
  -7.200  -0.4247   0.01170   0.00585  -0.0791  0.8067  0.0257  -4.0000   0.0000   0.0000   0.0000   0.0513
  -7.100  -0.4137   0.01153   0.00566  -0.0791  0.8054  0.0260  -3.9276   0.0000   0.0000   0.0000   0.0462
  -7.000  -0.4025   0.01136   0.00548  -0.0791  0.8040  0.0263  -3.8547   0.0000   0.0000   0.0000   0.0408
  -6.900  -0.3913   0.01121   0.00532  -0.0791  0.8026  0.0266  -3.7815   0.0000   0.0000   0.0000   0.0351
  -6.800  -0.3801   0.01108   0.00517  -0.0791  0.8012  0.0269  -3.7082   0.0000   0.0000   0.0000   0.0290
  -6.700  -0.3689   0.01095   0.00504  -0.0791  0.7998  0.0272  -3.6348   0.0000   0.0000   0.0000   0.0226
  -6.600  -0.3576   0.01084   0.00490  -0.0791  0.7985  0.0276  -3.5618   0.0000   0.0000   0.0000   0.0157
  -6.500  -0.3464   0.01073   0.00478  -0.0791  0.7973  0.0280  -3.4891   0.0000   0.0000   0.0000   0.0083
  -6.400  -0.3351   0.01063   0.00466  -0.0791  0.7960  0.0284  -3.4170   0.0000   0.0000   0.0000   0.0005
  -6.300  -0.3238   0.01053   0.00455  -0.0792  0.7947  0.0288  -3.3452   0.0000   0.0000   0.0000  -0.0079
  -6.200  -0.3123   0.01043   0.00444  -0.0792  0.7932  0.0293  -3.2737   0.0000   0.0000   0.0000  -0.0172
  -6.100  -0.3009   0.01033   0.00433  -0.0792  0.7916  0.0299  -3.2028   0.0000   0.0000   0.0000  -0.0271
  -6.000  -0.2894   0.01024   0.00423  -0.0793  0.7900  0.0305  -3.1324   0.0000   0.0000   0.0000  -0.0379
  -5.900  -0.2780   0.01016   0.00414  -0.0793  0.7885  0.0311  -3.0620   0.0000   0.0000   0.0000  -0.0495
  -5.800  -0.2665   0.01011   0.00407  -0.0793  0.7871  0.0315  -2.9908   0.0000   0.0000   0.0000  -0.0622
  -5.700  -0.2554   0.00992   0.00387  -0.0793  0.7858  0.0335  -2.9286   0.0000   0.0000   0.0000  -0.0753
  -5.600  -0.2442   0.00980   0.00375  -0.0793  0.7845  0.0355  -2.8611   0.0000   0.0000   0.0000  -0.0899
  -5.500  -0.2327   0.00972   0.00368  -0.0794  0.7831  0.0371  -2.7919   0.0000   0.0000   0.0000  -0.1065
  -5.400  -0.2211   0.00965   0.00361  -0.0794  0.7816  0.0384  -2.7229   0.0000   0.0000   0.0000  -0.1250
  -5.300  -0.2095   0.00960   0.00355  -0.0795  0.7800  0.0392  -2.6539   0.0000   0.0000   0.0000  -0.1457
  -5.200  -0.1981   0.00947   0.00341  -0.0795  0.7785  0.0411  -2.6003   0.0000   0.0000   0.0000  -0.1681
  -5.100  -0.1868   0.00936   0.00332  -0.0796  0.7770  0.0430  -2.5475   0.0000   0.0000   0.0000  -0.1933
  -5.000  -0.1753   0.00928   0.00324  -0.0796  0.7756  0.0444  -2.4930   0.0000   0.0000   0.0000  -0.2220
  -4.900  -0.1638   0.00922   0.00317  -0.0796  0.7742  0.0457  -2.4386   0.0000   0.0000   0.0000  -0.2548
  -4.800  -0.1523   0.00917   0.00310  -0.0797  0.7729  0.0468  -2.3842   0.0000   0.0000   0.0000  -0.2925
  -4.600  -0.1292   0.00900   0.00295  -0.0798  0.7698  0.0499  -2.2777   0.0000   0.0000   0.0000  -0.3893
  -4.500  -0.1177   0.00892   0.00288  -0.0798  0.7681  0.0517  -2.2241   0.0000   0.0000   0.0000  -0.4517
  -4.400  -0.1061   0.00885   0.00281  -0.0799  0.7664  0.0535  -2.1708   0.0000   0.0000   0.0000  -0.5280
  -4.300  -0.0945   0.00880   0.00275  -0.0799  0.7649  0.0550  -2.1177   0.0000   0.0000   0.0000  -0.6230
  -4.200  -0.0830   0.00873   0.00267  -0.0800  0.7634  0.0573  -2.0658   0.0000   0.0000   0.0000  -0.7431
  -4.100  -0.0716   0.00866   0.00260  -0.0800  0.7619  0.0600  -2.0139   0.0000   0.0000   0.0000  -0.9008
  -4.000  -0.0600   0.00859   0.00254  -0.0801  0.7601  0.0626  -1.9618   0.0000   0.0000   0.0000  -1.1233
  -3.900  -0.0484   0.00851   0.00248  -0.0801  0.7582  0.0657  -1.9103   0.0000   0.0000   0.0000  -1.4521
  -3.800  -0.0369   0.00843   0.00243  -0.0802  0.7563  0.0695  -1.8589   0.0000   0.0000   0.0000  -1.9850
  -3.700  -0.0253   0.00837   0.00237  -0.0802  0.7544  0.0733  -1.8079   0.0000   0.0000   0.0000  -3.0065
  -3.600  -0.0138   0.00830   0.00232  -0.0803  0.7527  0.0779  -1.7572   0.0000   0.0000   0.0000  -5.7237
  -3.500  -0.0023   0.00825   0.00227  -0.0803  0.7512  0.0822  -1.7069   0.0000   0.0000   0.0000  -35.9345
  -3.400   0.0093   0.00819   0.00222  -0.0804  0.7494  0.0869  -1.6567   0.0000   0.0000   0.0000   9.0655
  -3.300   0.0210   0.00813   0.00218  -0.0805  0.7474  0.0910  -1.6068   0.0000   0.0000   0.0000   4.1726
  -3.200   0.0326   0.00807   0.00214  -0.0805  0.7456  0.0954  -1.5573   0.0000   0.0000   0.0000   2.7733
  -3.100   0.0442   0.00801   0.00209  -0.0806  0.7438  0.0995  -1.5084   0.0000   0.0000   0.0000   2.1115
  -3.000   0.0558   0.00796   0.00204  -0.0807  0.7420  0.1039  -1.4599   0.0000   0.0000   0.0000   1.7252
  -2.900   0.0673   0.00790   0.00199  -0.0807  0.7404  0.1087  -1.4119   0.0000   0.0000   0.0000   1.4725
  -2.700   0.0905   0.00779   0.00193  -0.0809  0.7364  0.1207  -1.3165   0.0000   0.0000   0.0000   1.1585
  -2.600   0.1021   0.00773   0.00189  -0.0809  0.7341  0.1270  -1.2695   0.0000   0.0000   0.0000   1.0552
  -2.500   0.1137   0.00768   0.00185  -0.0810  0.7320  0.1329  -1.2231   0.0000   0.0000   0.0000   0.9730
  -2.400   0.1253   0.00763   0.00181  -0.0810  0.7300  0.1390  -1.1771   0.0000   0.0000   0.0000   0.9063
  -2.300   0.1368   0.00758   0.00177  -0.0811  0.7281  0.1464  -1.1316   0.0000   0.0000   0.0000   0.8509
  -2.200   0.1484   0.00751   0.00174  -0.0812  0.7258  0.1557  -1.0864   0.0000   0.0000   0.0000   0.8040
  -2.100   0.1600   0.00743   0.00171  -0.0813  0.7235  0.1674  -1.0417   0.0000   0.0000   0.0000   0.7640
  -1.900   0.1830   0.00731   0.00166  -0.0814  0.7195  0.1919  -0.9537   0.0000   0.0000   0.0000   0.6992
  -1.800   0.1945   0.00726   0.00163  -0.0814  0.7177  0.2034  -0.9105   0.0000   0.0000   0.0000   0.6726
  -1.700   0.2062   0.00719   0.00161  -0.0815  0.7154  0.2148  -0.8674   0.0000   0.0000   0.0000   0.6488
  -1.600   0.2178   0.00713   0.00159  -0.0816  0.7130  0.2260  -0.8248   0.0000   0.0000   0.0000   0.6276
  -1.500   0.2293   0.00708   0.00157  -0.0817  0.7106  0.2382  -0.7828   0.0000   0.0000   0.0000   0.6086
  -1.400   0.2408   0.00703   0.00154  -0.0818  0.7083  0.2508  -0.7520   0.0000   0.0000   0.0000   0.5914
  -1.300   0.2524   0.00698   0.00152  -0.0818  0.7060  0.2638  -0.7227   0.0000   0.0000   0.0000   0.5758
  -1.200   0.2640   0.00691   0.00150  -0.0819  0.7033  0.2774  -0.6935   0.0000   0.0000   0.0000   0.5615
  -1.100   0.2756   0.00685   0.00149  -0.0820  0.7007  0.2919  -0.6647   0.0000   0.0000   0.0000   0.5484
  -1.000   0.2871   0.00679   0.00147  -0.0821  0.6984  0.3082  -0.6431   0.0000   0.0000   0.0000   0.5365
  -0.900   0.2985   0.00674   0.00145  -0.0821  0.6963  0.3257  -0.6512   0.0000   0.0000   0.0000   0.5254
  -0.800   0.3101   0.00667   0.00144  -0.0822  0.6936  0.3446  -0.6593   0.0000   0.0000   0.0000   0.5152
  -0.700   0.3216   0.00659   0.00143  -0.0823  0.6908  0.3666  -0.6673   0.0000   0.0000   0.0000   0.5057
  -0.600   0.3329   0.00650   0.00142  -0.0824  0.6879  0.3944  -0.6753   0.0000   0.0000   0.0000   0.4970
  -0.500   0.3441   0.00641   0.00141  -0.0824  0.6852  0.4263  -0.6843   0.0000   0.0000   0.0000   0.4888
  -0.400   0.3555   0.00630   0.00140  -0.0825  0.6819  0.4611  -0.6933   0.0000   0.0000   0.0000   0.4812
  -0.300   0.3668   0.00619   0.00140  -0.0825  0.6785  0.4979  -0.7023   0.0000   0.0000   0.0000   0.4740
  -0.100   0.3893   0.00604   0.00141  -0.0826  0.6719  0.5597  -0.7220   0.0000   0.0000   0.0000   0.4608
   0.000   0.4006   0.00597   0.00141  -0.0826  0.6683  0.5862  -0.7326   0.0000   0.0000   0.0000   0.4547
   0.100   0.4118   0.00592   0.00141  -0.0826  0.6649  0.6127  -0.7431   0.0000   0.0000   0.0000   0.4489
   0.200   0.4231   0.00586   0.00143  -0.0826  0.6614  0.6389  -0.7537   0.0000   0.0000   0.0000   0.4434
   0.300   0.4344   0.00581   0.00144  -0.0826  0.6576  0.6632  -0.7644   0.0000   0.0000   0.0000   0.4382
   0.400   0.4456   0.00578   0.00145  -0.0826  0.6542  0.6844  -0.7750   0.0000   0.0000   0.0000   0.4332
   0.500   0.4569   0.00576   0.00146  -0.0826  0.6509  0.7016  -0.7857   0.0000   0.0000   0.0000   0.4285
   0.600   0.4683   0.00573   0.00148  -0.0826  0.6474  0.7175  -0.7965   0.0000   0.0000   0.0000   0.4239
   0.700   0.4795   0.00572   0.00149  -0.0826  0.6439  0.7323  -0.8072   0.0000   0.0000   0.0000   0.4196
   0.800   0.4908   0.00571   0.00150  -0.0826  0.6405  0.7464  -0.8180   0.0000   0.0000   0.0000   0.4155
   0.900   0.5022   0.00569   0.00152  -0.0826  0.6366  0.7600  -0.8288   0.0000   0.0000   0.0000   0.4115
   1.000   0.5133   0.00569   0.00153  -0.0825  0.6328  0.7732  -0.8395   0.0000   0.0000   0.0000   0.4077
   1.100   0.5245   0.00568   0.00155  -0.0825  0.6291  0.7863  -0.8509   0.0000   0.0000   0.0000   0.4041
   1.200   0.5356   0.00567   0.00157  -0.0824  0.6249  0.7988  -0.8624   0.0000   0.0000   0.0000   0.4006
   1.300   0.5466   0.00568   0.00159  -0.0823  0.6209  0.8115  -0.8739   0.0000   0.0000   0.0000   0.3972
   1.400   0.5577   0.00567   0.00161  -0.0822  0.6162  0.8242  -0.8853   0.0000   0.0000   0.0000   0.3940
   1.500   0.5685   0.00568   0.00163  -0.0821  0.6113  0.8371  -0.8967   0.0000   0.0000   0.0000   0.3908
   1.600   0.5793   0.00568   0.00165  -0.0820  0.6066  0.8492  -0.9087   0.0000   0.0000   0.0000   0.3878
   1.700   0.5900   0.00568   0.00167  -0.0818  0.6016  0.8618  -0.9222   0.0000   0.0000   0.0000   0.3848
   1.800   0.6004   0.00569   0.00170  -0.0816  0.5970  0.8749  -0.9356   0.0000   0.0000   0.0000   0.3819
   1.900   0.6108   0.00570   0.00172  -0.0813  0.5919  0.8886  -0.9491   0.0000   0.0000   0.0000   0.3791
   2.000   0.6207   0.00571   0.00175  -0.0810  0.5870  0.9029  -0.9626   0.0000   0.0000   0.0000   0.3763
   2.100   0.6305   0.00571   0.00177  -0.0806  0.5815  0.9172  -0.9762   0.0000   0.0000   0.0000   0.3735
   2.200   0.6402   0.00574   0.00180  -0.0802  0.5762  0.9315  -0.9898   0.0000   0.0000   0.0000   0.3708
   2.300   0.6504   0.00575   0.00182  -0.0799  0.5704  0.9458  -1.0042   0.0000   0.0000   0.0000   0.3683
   2.400   0.6618   0.00578   0.00184  -0.0798  0.5651  0.9588  -1.0196   0.0000   0.0000   0.0000   0.3660
   2.600   0.6896   0.00586   0.00187  -0.0810  0.5543  0.9811  -1.0541   0.0000   0.0000   0.0000   0.3626
   2.700   0.7049   0.00589   0.00189  -0.0819  0.5485  0.9909  -1.0726   0.0000   0.0000   0.0000   0.3613
   2.800   0.7199   0.00595   0.00192  -0.0827  0.5431  1.0000  -1.0908   0.0000   0.0000   0.0000   0.3599
   2.900   0.7309   0.00600   0.00194  -0.0827  0.5375  1.0000  -1.1070   0.0000   0.0000   0.0000   0.3581
   3.000   0.7419   0.00606   0.00198  -0.0827  0.5322  1.0000  -1.1234   0.0000   0.0000   0.0000   0.3563
   3.100   0.7530   0.00612   0.00201  -0.0827  0.5266  1.0000  -1.1400   0.0000   0.0000   0.0000   0.3545
   3.200   0.7640   0.00618   0.00204  -0.0827  0.5214  1.0000  -1.1565   0.0000   0.0000   0.0000   0.3528
   3.300   0.7750   0.00624   0.00208  -0.0827  0.5158  1.0000  -1.1731   0.0000   0.0000   0.0000   0.3512
   3.400   0.7860   0.00631   0.00213  -0.0827  0.5105  1.0000  -1.1911   0.0000   0.0000   0.0000   0.3496
   3.500   0.7970   0.00637   0.00217  -0.0827  0.5046  1.0000  -1.2098   0.0000   0.0000   0.0000   0.3480
   3.600   0.8080   0.00644   0.00221  -0.0827  0.4989  1.0000  -1.2285   0.0000   0.0000   0.0000   0.3465
   3.700   0.8189   0.00651   0.00225  -0.0826  0.4924  1.0000  -1.2472   0.0000   0.0000   0.0000   0.3450
   3.800   0.8298   0.00658   0.00229  -0.0826  0.4858  1.0000  -1.2659   0.0000   0.0000   0.0000   0.3435
   3.900   0.8406   0.00667   0.00234  -0.0826  0.4789  1.0000  -1.2846   0.0000   0.0000   0.0000   0.3421
   4.000   0.8515   0.00674   0.00239  -0.0826  0.4721  1.0000  -1.3035   0.0000   0.0000   0.0000   0.3407
   4.100   0.8623   0.00682   0.00244  -0.0825  0.4658  1.0000  -1.3225   0.0000   0.0000   0.0000   0.3393
   4.200   0.8732   0.00691   0.00249  -0.0825  0.4594  1.0000  -1.3443   0.0000   0.0000   0.0000   0.3380
   4.300   0.8841   0.00698   0.00254  -0.0825  0.4534  1.0000  -1.3663   0.0000   0.0000   0.0000   0.3367
   4.500   0.9057   0.00714   0.00265  -0.0824  0.4408  1.0000  -1.4105   0.0000   0.0000   0.0000   0.3342
   4.600   0.9164   0.00724   0.00271  -0.0824  0.4344  1.0000  -1.4327   0.0000   0.0000   0.0000   0.3330
   4.700   0.9272   0.00732   0.00276  -0.0824  0.4275  1.0000  -1.4573   0.0000   0.0000   0.0000   0.3318
   4.800   0.9379   0.00741   0.00283  -0.0823  0.4207  1.0000  -1.4820   0.0000   0.0000   0.0000   0.3306
   4.900   0.9484   0.00752   0.00289  -0.0823  0.4136  1.0000  -1.5065   0.0000   0.0000   0.0000   0.3294
   5.000   0.9591   0.00761   0.00296  -0.0822  0.4064  1.0000  -1.5314   0.0000   0.0000   0.0000   0.3283
   5.100   0.9697   0.00771   0.00302  -0.0822  0.3995  1.0000  -1.5563   0.0000   0.0000   0.0000   0.3272
   5.300   0.9907   0.00792   0.00319  -0.0820  0.3854  1.0000  -1.6076   0.0000   0.0000   0.0000   0.3250
   5.400   1.0012   0.00803   0.00326  -0.0820  0.3783  1.0000  -1.6343   0.0000   0.0000   0.0000   0.3240
   5.500   1.0114   0.00815   0.00334  -0.0819  0.3709  1.0000  -1.6609   0.0000   0.0000   0.0000   0.3229
   5.600   1.0220   0.00825   0.00341  -0.0818  0.3632  1.0000  -1.6880   0.0000   0.0000   0.0000   0.3219
   5.700   1.0323   0.00836   0.00350  -0.0817  0.3558  1.0000  -1.7149   0.0000   0.0000   0.0000   0.3209
   5.800   1.0425   0.00849   0.00358  -0.0816  0.3485  1.0000  -1.7449   0.0000   0.0000   0.0000   0.3199
   5.900   1.0529   0.00860   0.00366  -0.0815  0.3414  1.0000  -1.7769   0.0000   0.0000   0.0000   0.3190
   6.000   1.0632   0.00872   0.00375  -0.0814  0.3348  1.0000  -1.8090   0.0000   0.0000   0.0000   0.3180
   6.100   1.0733   0.00884   0.00384  -0.0813  0.3280  1.0000  -1.8410   0.0000   0.0000   0.0000   0.3170
   6.200   1.0836   0.00896   0.00393  -0.0812  0.3208  1.0000  -1.8733   0.0000   0.0000   0.0000   0.3161
   6.300   1.0937   0.00909   0.00402  -0.0811  0.3137  1.0000  -1.9056   0.0000   0.0000   0.0000   0.3152
   6.400   1.1036   0.00923   0.00412  -0.0810  0.3060  1.0000  -1.9425   0.0000   0.0000   0.0000   0.3143
   6.500   1.1135   0.00937   0.00422  -0.0808  0.2981  1.0000  -1.9845   0.0000   0.0000   0.0000   0.3134
   6.600   1.1235   0.00951   0.00432  -0.0807  0.2904  1.0000  -2.0269   0.0000   0.0000   0.0000   0.3125
   6.700   1.1333   0.00965   0.00443  -0.0806  0.2830  1.0000  -2.0693   0.0000   0.0000   0.0000   0.3116
   6.900   1.1529   0.00994   0.00464  -0.0803  0.2687  1.0000  -2.1548   0.0000   0.0000   0.0000   0.3099
   7.000   1.1626   0.01009   0.00476  -0.0801  0.2619  1.0000  -2.1977   0.0000   0.0000   0.0000   0.3090
   7.100   1.1721   0.01026   0.00488  -0.0799  0.2549  1.0000  -2.2453   0.0000   0.0000   0.0000   0.3082
   7.200   1.1819   0.01040   0.00502  -0.0797  0.2478  1.0000  -2.2954   0.0000   0.0000   0.0000   0.3073
   7.300   1.1914   0.01055   0.00514  -0.0796  0.2411  1.0000  -2.3454   0.0000   0.0000   0.0000   0.3065
   7.400   1.2007   0.01072   0.00527  -0.0793  0.2344  1.0000  -2.3951   0.0000   0.0000   0.0000   0.3057
   7.500   1.2103   0.01087   0.00539  -0.0792  0.2280  1.0000  -2.4460   0.0000   0.0000   0.0000   0.3049
   7.600   1.2198   0.01102   0.00551  -0.0790  0.2222  1.0000  -2.4967   0.0000   0.0000   0.0000   0.3041
   7.700   1.2290   0.01119   0.00564  -0.0788  0.2160  1.0000  -2.5474   0.0000   0.0000   0.0000   0.3033
   7.800   1.2385   0.01134   0.00577  -0.0786  0.2097  1.0000  -2.5988   0.0000   0.0000   0.0000   0.3025
   7.900   1.2475   0.01152   0.00591  -0.0783  0.2031  1.0000  -2.6495   0.0000   0.0000   0.0000   0.3017
   8.100   1.2654   0.01188   0.00620  -0.0778  0.1893  1.0000  -2.7517   0.0000   0.0000   0.0000   0.3001
   8.200   1.2743   0.01206   0.00634  -0.0775  0.1834  1.0000  -2.8029   0.0000   0.0000   0.0000   0.2993
   8.300   1.2831   0.01225   0.00649  -0.0772  0.1775  1.0000  -2.8544   0.0000   0.0000   0.0000   0.2985
   8.400   1.2921   0.01241   0.00664  -0.0770  0.1723  1.0000  -2.9066   0.0000   0.0000   0.0000   0.2978
   8.500   1.3006   0.01261   0.00680  -0.0767  0.1671  1.0000  -2.9578   0.0000   0.0000   0.0000   0.2970
   8.600   1.3096   0.01277   0.00694  -0.0764  0.1623  1.0000  -3.0108   0.0000   0.0000   0.0000   0.2962
   8.700   1.3180   0.01297   0.00711  -0.0761  0.1577  1.0000  -3.0623   0.0000   0.0000   0.0000   0.2955
   8.800   1.3268   0.01313   0.00726  -0.0758  0.1534  1.0000  -3.1154   0.0000   0.0000   0.0000   0.2947
   9.000   1.3439   0.01349   0.00758  -0.0751  0.1453  1.0000  -3.2207   0.0000   0.0000   0.0000   0.2932
   9.100   1.3520   0.01369   0.00777  -0.0748  0.1412  1.0000  -3.2726   0.0000   0.0000   0.0000   0.2925
   9.200   1.3605   0.01386   0.00793  -0.0744  0.1374  1.0000  -3.3260   0.0000   0.0000   0.0000   0.2917
   9.300   1.3685   0.01406   0.00811  -0.0741  0.1333  1.0000  -3.3782   0.0000   0.0000   0.0000   0.2910
   9.400   1.3766   0.01425   0.00828  -0.0737  0.1295  1.0000  -3.4311   0.0000   0.0000   0.0000   0.2902
   9.500   1.3842   0.01445   0.00847  -0.0732  0.1255  1.0000  -3.4827   0.0000   0.0000   0.0000   0.2895
   9.600   1.3913   0.01464   0.00864  -0.0727  0.1219  1.0000  -3.5333   0.0000   0.0000   0.0000   0.2886
   9.700   1.3982   0.01485   0.00883  -0.0721  0.1181  1.0000  -3.5835   0.0000   0.0000   0.0000   0.2878
   9.800   1.4050   0.01507   0.00904  -0.0715  0.1147  1.0000  -3.6335   0.0000   0.0000   0.0000   0.2870
   9.900   1.4118   0.01529   0.00924  -0.0710  0.1111  1.0000  -3.6840   0.0000   0.0000   0.0000   0.2862
  10.000   1.4183   0.01553   0.00947  -0.0704  0.1078  1.0000  -3.7334   0.0000   0.0000   0.0000   0.2854
  10.100   1.4252   0.01575   0.00968  -0.0699  0.1045  1.0000  -3.7845   0.0000   0.0000   0.0000   0.2846
  10.200   1.4312   0.01603   0.00993  -0.0692  0.1012  1.0000  -3.8332   0.0000   0.0000   0.0000   0.2838
  10.300   1.4381   0.01626   0.01016  -0.0687  0.0982  1.0000  -3.8845   0.0000   0.0000   0.0000   0.2831
  10.400   1.4441   0.01654   0.01042  -0.0681  0.0953  1.0000  -3.9333   0.0000   0.0000   0.0000   0.2823
  10.500   1.4507   0.01679   0.01067  -0.0676  0.0925  1.0000  -3.9842   0.0000   0.0000   0.0000   0.2816
  10.600   1.4569   0.01707   0.01094  -0.0671  0.0897  1.0000  -4.0341   0.0000   0.0000   0.0000   0.2809
  10.700   1.4630   0.01736   0.01122  -0.0666  0.0871  1.0000  -4.0838   0.0000   0.0000   0.0000   0.2801
  10.800   1.4695   0.01763   0.01148  -0.0661  0.0843  1.0000  -4.1350   0.0000   0.0000   0.0000   0.2794
  10.900   1.4751   0.01796   0.01179  -0.0655  0.0818  1.0000  -4.1835   0.0000   0.0000   0.0000   0.2787
  11.000   1.4816   0.01823   0.01208  -0.0650  0.0793  1.0000  -4.2350   0.0000   0.0000   0.0000   0.2780
  11.100   1.4873   0.01856   0.01240  -0.0645  0.0769  1.0000  -4.2842   0.0000   0.0000   0.0000   0.2773
  11.200   1.4933   0.01887   0.01270  -0.0640  0.0748  1.0000  -4.3344   0.0000   0.0000   0.0000   0.2766
  11.300   1.4992   0.01918   0.01302  -0.0635  0.0725  1.0000  -4.3848   0.0000   0.0000   0.0000   0.2759
  11.400   1.5045   0.01955   0.01337  -0.0629  0.0704  1.0000  -4.4330   0.0000   0.0000   0.0000   0.2753
  11.500   1.5107   0.01985   0.01368  -0.0625  0.0683  1.0000  -4.4844   0.0000   0.0000   0.0000   0.2746
  11.600   1.5160   0.02022   0.01404  -0.0619  0.0662  1.0000  -4.5333   0.0000   0.0000   0.0000   0.2739
  11.700   1.5216   0.02057   0.01439  -0.0614  0.0643  1.0000  -4.5828   0.0000   0.0000   0.0000   0.2733
  11.800   1.5272   0.02092   0.01474  -0.0610  0.0623  1.0000  -4.6327   0.0000   0.0000   0.0000   0.2726
  11.900   1.5320   0.02133   0.01514  -0.0604  0.0604  1.0000  -4.6801   0.0000   0.0000   0.0000   0.2720
  12.000   1.5376   0.02169   0.01550  -0.0599  0.0586  1.0000  -4.7333   0.0000   0.0000   0.0000   0.2713
  12.100   1.5424   0.02210   0.01591  -0.0594  0.0568  1.0000  -4.7847   0.0000   0.0000   0.0000   0.2707
  12.200   1.5475   0.02250   0.01632  -0.0589  0.0552  1.0000  -4.8369   0.0000   0.0000   0.0000   0.2700
  12.300   1.5526   0.02290   0.01672  -0.0584  0.0535  1.0000  -4.8895   0.0000   0.0000   0.0000   0.2694
  12.500   1.5621   0.02376   0.01758  -0.0574  0.0504  1.0000  -4.9928   0.0000   0.0000   0.0000   0.2682
  12.600   1.5666   0.02421   0.01803  -0.0569  0.0488  1.0000  -5.0439   0.0000   0.0000   0.0000   0.2675
  12.700   1.5709   0.02468   0.01850  -0.0564  0.0475  1.0000  -5.0940   0.0000   0.0000   0.0000   0.2669
  12.800   1.5756   0.02511   0.01895  -0.0559  0.0461  1.0000  -5.1461   0.0000   0.0000   0.0000   0.2663
  12.900   1.5795   0.02562   0.01946  -0.0553  0.0448  1.0000  -5.1952   0.0000   0.0000   0.0000   0.2657
  13.000   1.5838   0.02610   0.01994  -0.0548  0.0436  1.0000  -5.2456   0.0000   0.0000   0.0000   0.2651
  13.100   1.5882   0.02657   0.02043  -0.0544  0.0423  1.0000  -5.2966   0.0000   0.0000   0.0000   0.2645
  13.200   1.5917   0.02711   0.02097  -0.0538  0.0412  1.0000  -5.3448   0.0000   0.0000   0.0000   0.2639
  13.300   1.5956   0.02763   0.02150  -0.0533  0.0402  1.0000  -5.3940   0.0000   0.0000   0.0000   0.2633
  13.400   1.5997   0.02813   0.02202  -0.0529  0.0392  1.0000  -5.4442   0.0000   0.0000   0.0000   0.2627
  13.500   1.6031   0.02870   0.02259  -0.0524  0.0382  1.0000  -5.4920   0.0000   0.0000   0.0000   0.2621
  13.600   1.6060   0.02930   0.02320  -0.0518  0.0374  1.0000  -5.5380   0.0000   0.0000   0.0000   0.2616
  13.700   1.6100   0.02983   0.02374  -0.0514  0.0365  1.0000  -5.5880   0.0000   0.0000   0.0000   0.2610
  13.800   1.6132   0.03041   0.02434  -0.0509  0.0357  1.0000  -5.6353   0.0000   0.0000   0.0000   0.2604
  13.900   1.6158   0.03106   0.02499  -0.0504  0.0350  1.0000  -5.6804   0.0000   0.0000   0.0000   0.2599
  14.000   1.6183   0.03171   0.02565  -0.0499  0.0344  1.0000  -5.7249   0.0000   0.0000   0.0000   0.2593
  14.100   1.6220   0.03227   0.02623  -0.0495  0.0337  1.0000  -5.7743   0.0000   0.0000   0.0000   0.2588
  14.200   1.6251   0.03288   0.02686  -0.0490  0.0330  1.0000  -5.8232   0.0000   0.0000   0.0000   0.2582
  14.300   1.6275   0.03356   0.02755  -0.0486  0.0324  1.0000  -5.8712   0.0000   0.0000   0.0000   0.2577
  14.400   1.6293   0.03429   0.02830  -0.0481  0.0319  1.0000  -5.9166   0.0000   0.0000   0.0000   0.2571
  14.500   1.6321   0.03495   0.02898  -0.0477  0.0314  1.0000  -5.9658   0.0000   0.0000   0.0000   0.2566
  14.600   1.6351   0.03559   0.02965  -0.0473  0.0308  1.0000  -6.0165   0.0000   0.0000   0.0000   0.2561
  14.700   1.6375   0.03629   0.03037  -0.0468  0.0304  1.0000  -6.0646   0.0000   0.0000   0.0000   0.2556
  14.800   1.6395   0.03703   0.03113  -0.0464  0.0299  1.0000  -6.1113   0.0000   0.0000   0.0000   0.2551
  14.900   1.6409   0.03783   0.03195  -0.0460  0.0295  1.0000  -6.1553   0.0000   0.0000   0.0000   0.2546
  15.000   1.6416   0.03871   0.03284  -0.0456  0.0291  1.0000  -6.1962   0.0000   0.0000   0.0000   0.2541
  15.100   1.6442   0.03943   0.03358  -0.0452  0.0287  1.0000  -6.2450   0.0000   0.0000   0.0000   0.2536
  15.200   1.6468   0.04015   0.03433  -0.0449  0.0283  1.0000  -6.3110   0.0000   0.0000   0.0000   0.2532
  15.300   1.6489   0.04093   0.03514  -0.0446  0.0279  1.0000  -6.3763   0.0000   0.0000   0.0000   0.2527
  15.400   1.6506   0.04175   0.03599  -0.0443  0.0276  1.0000  -6.4395   0.0000   0.0000   0.0000   0.2523
  15.500   1.6519   0.04264   0.03689  -0.0440  0.0273  1.0000  -6.5004   0.0000   0.0000   0.0000   0.2519
  15.600   1.6527   0.04357   0.03785  -0.0437  0.0270  1.0000  -6.5588   0.0000   0.0000   0.0000   0.2515
  15.700   1.6527   0.04461   0.03890  -0.0434  0.0267  1.0000  -6.6124   0.0000   0.0000   0.0000   0.2510
  15.800   1.6539   0.04554   0.03986  -0.0431  0.0264  1.0000  -6.6727   0.0000   0.0000   0.0000   0.2506
  15.900   1.6557   0.04641   0.04077  -0.0429  0.0261  1.0000  -6.7368   0.0000   0.0000   0.0000   0.2503
  16.000   1.6571   0.04732   0.04171  -0.0427  0.0259  1.0000  -6.7995   0.0000   0.0000   0.0000   0.2499
  16.100   1.6583   0.04828   0.04269  -0.0425  0.0256  1.0000  -6.8605   0.0000   0.0000   0.0000   0.2495
  16.200   1.6592   0.04928   0.04372  -0.0423  0.0253  1.0000  -6.9198   0.0000   0.0000   0.0000   0.2492
  16.300   1.6596   0.05034   0.04480  -0.0422  0.0251  1.0000  -6.9765   0.0000   0.0000   0.0000   0.2488
  16.400   1.6597   0.05144   0.04593  -0.0420  0.0249  1.0000  -7.0313   0.0000   0.0000   0.0000   0.2485
  16.500   1.6591   0.05263   0.04714  -0.0419  0.0247  1.0000  -7.0820   0.0000   0.0000   0.0000   0.2482
  16.600   1.6578   0.05392   0.04845  -0.0418  0.0245  1.0000  -7.1280   0.0000   0.0000   0.0000   0.2479
  16.700   1.6557   0.05531   0.04987  -0.0417  0.0243  1.0000  -7.1689   0.0000   0.0000   0.0000   0.2476
  16.800   1.6568   0.05634   0.05094  -0.0416  0.0241  1.0000  -7.2302   0.0000   0.0000   0.0000   0.2473
  16.900   1.6576   0.05742   0.05206  -0.0416  0.0239  1.0000  -7.2893   0.0000   0.0000   0.0000   0.2471
  17.000   1.6579   0.05857   0.05325  -0.0415  0.0236  1.0000  -7.3453   0.0000   0.0000   0.0000   0.2468
  17.100   1.6579   0.05975   0.05446  -0.0415  0.0234  1.0000  -7.4001   0.0000   0.0000   0.0000   0.2466
  17.200   1.6576   0.06099   0.05573  -0.0415  0.0232  1.0000  -7.4527   0.0000   0.0000   0.0000   0.2463
  17.300   1.6571   0.06226   0.05703  -0.0416  0.0230  1.0000  -7.5039   0.0000   0.0000   0.0000   0.2461
  17.400   1.6561   0.06359   0.05840  -0.0416  0.0229  1.0000  -7.5522   0.0000   0.0000   0.0000   0.2459
  17.500   1.6547   0.06501   0.05984  -0.0417  0.0227  1.0000  -7.5972   0.0000   0.0000   0.0000   0.2457
  17.600   1.6528   0.06648   0.06134  -0.0418  0.0226  1.0000  -7.6395   0.0000   0.0000   0.0000   0.2456
  17.700   1.6503   0.06805   0.06294  -0.0420  0.0224  1.0000  -7.6770   0.0000   0.0000   0.0000   0.2455
  17.800   1.6470   0.06973   0.06465  -0.0421  0.0223  1.0000  -7.7093   0.0000   0.0000   0.0000   0.2454
  17.900   1.6431   0.07151   0.06647  -0.0424  0.0222  1.0000  -7.7365   0.0000   0.0000   0.0000   0.2453
  18.000   1.6409   0.07308   0.06807  -0.0426  0.0220  1.0000  -7.7755   0.0000   0.0000   0.0000   0.2452
  18.100   1.6398   0.07451   0.06955  -0.0428  0.0219  1.0000  -7.8217   0.0000   0.0000   0.0000   0.2451
  18.200   1.6384   0.07599   0.07107  -0.0430  0.0218  1.0000  -7.8659   0.0000   0.0000   0.0000   0.2450
  18.300   1.6365   0.07754   0.07266  -0.0432  0.0216  1.0000  -7.9065   0.0000   0.0000   0.0000   0.2449
  18.400   1.6344   0.07913   0.07429  -0.0435  0.0215  1.0000  -7.9455   0.0000   0.0000   0.0000   0.2449
  18.500   1.6321   0.08076   0.07595  -0.0438  0.0214  1.0000  -7.9827   0.0000   0.0000   0.0000   0.2448
  18.600   1.6294   0.08245   0.07768  -0.0441  0.0213  1.0000  -8.0173   0.0000   0.0000   0.0000   0.2448
  18.700   1.6267   0.08416   0.07943  -0.0445  0.0212  1.0000  -8.0512   0.0000   0.0000   0.0000   0.2448
  18.800   1.6237   0.08591   0.08122  -0.0449  0.0211  1.0000  -8.0833   0.0000   0.0000   0.0000   0.2449
  18.900   1.6205   0.08771   0.08305  -0.0453  0.0210  1.0000  -8.1133   0.0000   0.0000   0.0000   0.2449
  19.000   1.6172   0.08951   0.08490  -0.0457  0.0209  1.0000  -8.1426   0.0000   0.0000   0.0000   0.2450
  19.100   1.6137   0.09138   0.08680  -0.0462  0.0208  1.0000  -8.1692   0.0000   0.0000   0.0000   0.2451
  19.200   1.6099   0.09329   0.08875  -0.0467  0.0207  1.0000  -8.1937   0.0000   0.0000   0.0000   0.2452
  19.300   1.6059   0.09523   0.09072  -0.0472  0.0206  1.0000  -8.2168   0.0000   0.0000   0.0000   0.2454
  19.400   1.6017   0.09723   0.09276  -0.0478  0.0206  1.0000  -8.2371   0.0000   0.0000   0.0000   0.2456
  19.500   1.5972   0.09928   0.09485  -0.0485  0.0205  1.0000  -8.2550   0.0000   0.0000   0.0000   0.2458
  19.600   1.5926   0.10135   0.09696  -0.0491  0.0204  1.0000  -8.2712   0.0000   0.0000   0.0000   0.2460
  19.700   1.5877   0.10349   0.09912  -0.0498  0.0204  1.0000  -8.2841   0.0000   0.0000   0.0000   0.2463
  19.800   1.5824   0.10568   0.10136  -0.0506  0.0203  1.0000  -8.2940   0.0000   0.0000   0.0000   0.2466
  19.900   1.5771   0.10790   0.10361  -0.0514  0.0202  1.0000  -8.3025   0.0000   0.0000   0.0000   0.2470
  20.000   1.5716   0.11017   0.10591  -0.0522  0.0201  1.0000  -8.3084   0.0000   0.0000   0.0000   0.2474


