xflr5 v6.57

 Calculated polar for: QX0123

 1 1 Reynolds number fixed          Mach number fixed         

 xtrf =   1.000 (top)        1.000 (bottom)
 Mach =   0.000     Re =     0.540 e 6     Ncrit =   9.000

  alpha     CL        CD       CDp       Cm    Top Xtr Bot Xtr   Cpmin    Chinge    XCp    
 ------- -------- --------- --------- -------- ------- ------- -------- --------- ---------
 -10.000  -0.6799   0.02494   0.02001  -0.0845  0.8825  0.0239  -5.9789   0.0000   0.0000   0.0000   0.1124
  -9.900  -0.6698   0.02483   0.01985  -0.0845  0.8806  0.0241  -5.8812   0.0000   0.0000   0.0000   0.1106
  -9.800  -0.6666   0.02314   0.01795  -0.0843  0.8786  0.0247  -5.8746   0.0000   0.0000   0.0000   0.1104
  -9.700  -0.6612   0.02191   0.01660  -0.0841  0.8769  0.0254  -5.8363   0.0000   0.0000   0.0000   0.1097
  -9.600  -0.6524   0.02151   0.01616  -0.0840  0.8754  0.0258  -5.7518   0.0000   0.0000   0.0000   0.1083
  -9.500  -0.6431   0.02125   0.01586  -0.0838  0.8741  0.0262  -5.6609   0.0000   0.0000   0.0000   0.1066
  -9.400  -0.6331   0.02099   0.01559  -0.0839  0.8724  0.0265  -5.5679   0.0000   0.0000   0.0000   0.1046
  -9.300  -0.6230   0.02076   0.01534  -0.0839  0.8708  0.0269  -5.4753   0.0000   0.0000   0.0000   0.1025
  -9.200  -0.6130   0.02053   0.01508  -0.0838  0.8692  0.0272  -5.3838   0.0000   0.0000   0.0000   0.1004
  -9.100  -0.6029   0.02029   0.01480  -0.0838  0.8676  0.0276  -5.2936   0.0000   0.0000   0.0000   0.0982
  -9.000  -0.5930   0.02005   0.01452  -0.0837  0.8662  0.0279  -5.2048   0.0000   0.0000   0.0000   0.0961
  -8.900  -0.5830   0.01980   0.01423  -0.0836  0.8649  0.0283  -5.1174   0.0000   0.0000   0.0000   0.0938
  -8.800  -0.5731   0.01955   0.01392  -0.0835  0.8636  0.0286  -5.0310   0.0000   0.0000   0.0000   0.0916
  -8.700  -0.5630   0.01929   0.01361  -0.0834  0.8623  0.0289  -4.9450   0.0000   0.0000   0.0000   0.0891
  -8.600  -0.5526   0.01902   0.01330  -0.0834  0.8607  0.0292  -4.8587   0.0000   0.0000   0.0000   0.0863
  -8.500  -0.5423   0.01875   0.01299  -0.0834  0.8590  0.0295  -4.7731   0.0000   0.0000   0.0000   0.0835
  -8.400  -0.5321   0.01849   0.01269  -0.0833  0.8575  0.0298  -4.6881   0.0000   0.0000   0.0000   0.0807
  -8.300  -0.5218   0.01823   0.01238  -0.0833  0.8560  0.0300  -4.6037   0.0000   0.0000   0.0000   0.0777
  -8.200  -0.5115   0.01798   0.01208  -0.0832  0.8547  0.0303  -4.5196   0.0000   0.0000   0.0000   0.0747
  -8.100  -0.5012   0.01774   0.01179  -0.0831  0.8534  0.0305  -4.4360   0.0000   0.0000   0.0000   0.0715
  -8.000  -0.4910   0.01751   0.01151  -0.0830  0.8521  0.0307  -4.3527   0.0000   0.0000   0.0000   0.0683
  -7.900  -0.4804   0.01728   0.01124  -0.0830  0.8506  0.0309  -4.2826   0.0000   0.0000   0.0000   0.0646
  -7.800  -0.4697   0.01705   0.01098  -0.0829  0.8489  0.0311  -4.2128   0.0000   0.0000   0.0000   0.0607
  -7.700  -0.4591   0.01683   0.01073  -0.0829  0.8472  0.0312  -4.1431   0.0000   0.0000   0.0000   0.0566
  -7.600  -0.4484   0.01663   0.01048  -0.0829  0.8457  0.0314  -4.0735   0.0000   0.0000   0.0000   0.0524
  -7.500  -0.4378   0.01643   0.01025  -0.0828  0.8442  0.0315  -4.0039   0.0000   0.0000   0.0000   0.0481
  -7.400  -0.4272   0.01625   0.01002  -0.0827  0.8428  0.0316  -3.9345   0.0000   0.0000   0.0000   0.0435
  -7.300  -0.4165   0.01607   0.00981  -0.0826  0.8416  0.0317  -3.8651   0.0000   0.0000   0.0000   0.0387
  -7.200  -0.4073   0.01549   0.00917  -0.0824  0.8404  0.0321  -3.8163   0.0000   0.0000   0.0000   0.0346
  -7.100  -0.3973   0.01503   0.00868  -0.0824  0.8387  0.0325  -3.7603   0.0000   0.0000   0.0000   0.0295
  -7.000  -0.3871   0.01468   0.00831  -0.0823  0.8370  0.0329  -3.6991   0.0000   0.0000   0.0000   0.0241
  -6.900  -0.3766   0.01440   0.00801  -0.0823  0.8354  0.0334  -3.6345   0.0000   0.0000   0.0000   0.0183
  -6.800  -0.3660   0.01417   0.00777  -0.0822  0.8338  0.0338  -3.5680   0.0000   0.0000   0.0000   0.0120
  -6.700  -0.3553   0.01398   0.00756  -0.0822  0.8324  0.0342  -3.5005   0.0000   0.0000   0.0000   0.0053
  -6.600  -0.3446   0.01380   0.00736  -0.0821  0.8311  0.0347  -3.4329   0.0000   0.0000   0.0000  -0.0018
  -6.500  -0.3338   0.01364   0.00718  -0.0820  0.8299  0.0352  -3.3656   0.0000   0.0000   0.0000  -0.0095
  -6.400  -0.3228   0.01350   0.00702  -0.0820  0.8285  0.0358  -3.2976   0.0000   0.0000   0.0000  -0.0179
  -6.300  -0.3117   0.01336   0.00687  -0.0821  0.8268  0.0365  -3.2293   0.0000   0.0000   0.0000  -0.0273
  -6.200  -0.3005   0.01323   0.00672  -0.0821  0.8252  0.0373  -3.1617   0.0000   0.0000   0.0000  -0.0373
  -6.100  -0.2894   0.01311   0.00658  -0.0821  0.8236  0.0381  -3.0948   0.0000   0.0000   0.0000  -0.0480
  -6.000  -0.2782   0.01301   0.00645  -0.0820  0.8222  0.0389  -3.0282   0.0000   0.0000   0.0000  -0.0595
  -5.900  -0.2669   0.01294   0.00635  -0.0820  0.8208  0.0394  -2.9612   0.0000   0.0000   0.0000  -0.0722
  -5.800  -0.2570   0.01250   0.00591  -0.0819  0.8195  0.0415  -2.9110   0.0000   0.0000   0.0000  -0.0838
  -5.700  -0.2461   0.01235   0.00575  -0.0818  0.8184  0.0429  -2.8471   0.0000   0.0000   0.0000  -0.0980
  -5.600  -0.2349   0.01223   0.00563  -0.0819  0.8168  0.0444  -2.7820   0.0000   0.0000   0.0000  -0.1143
  -5.500  -0.2235   0.01212   0.00552  -0.0819  0.8150  0.0459  -2.7176   0.0000   0.0000   0.0000  -0.1325
  -5.400  -0.2121   0.01204   0.00541  -0.0819  0.8132  0.0472  -2.6531   0.0000   0.0000   0.0000  -0.1526
  -5.300  -0.2014   0.01181   0.00518  -0.0819  0.8115  0.0492  -2.5936   0.0000   0.0000   0.0000  -0.1736
  -5.200  -0.1903   0.01168   0.00506  -0.0818  0.8100  0.0510  -2.5329   0.0000   0.0000   0.0000  -0.1978
  -5.100  -0.1790   0.01159   0.00496  -0.0818  0.8086  0.0527  -2.4822   0.0000   0.0000   0.0000  -0.2253
  -5.000  -0.1678   0.01152   0.00485  -0.0818  0.8073  0.0544  -2.4318   0.0000   0.0000   0.0000  -0.2565
  -4.900  -0.1564   0.01145   0.00476  -0.0818  0.8059  0.0557  -2.3813   0.0000   0.0000   0.0000  -0.2930
  -4.800  -0.1453   0.01126   0.00460  -0.0818  0.8041  0.0580  -2.3330   0.0000   0.0000   0.0000  -0.3340
  -4.700  -0.1340   0.01115   0.00451  -0.0819  0.8024  0.0599  -2.2818   0.0000   0.0000   0.0000  -0.3828
  -4.600  -0.1226   0.01107   0.00441  -0.0819  0.8007  0.0619  -2.2309   0.0000   0.0000   0.0000  -0.4409
  -4.400  -0.1002   0.01084   0.00418  -0.0819  0.7978  0.0666  -2.1312   0.0000   0.0000   0.0000  -0.5944
  -4.300  -0.0889   0.01076   0.00409  -0.0819  0.7964  0.0694  -2.0808   0.0000   0.0000   0.0000  -0.7006
  -4.200  -0.0775   0.01069   0.00400  -0.0819  0.7952  0.0722  -2.0310   0.0000   0.0000   0.0000  -0.8386
  -4.100  -0.0662   0.01057   0.00393  -0.0819  0.7932  0.0758  -1.9809   0.0000   0.0000   0.0000  -1.0250
  -4.000  -0.0547   0.01050   0.00386  -0.0820  0.7913  0.0796  -1.9309   0.0000   0.0000   0.0000  -1.2917
  -3.900  -0.0434   0.01039   0.00378  -0.0820  0.7896  0.0838  -1.8812   0.0000   0.0000   0.0000  -1.6931
  -3.800  -0.0319   0.01033   0.00371  -0.0820  0.7880  0.0883  -1.8315   0.0000   0.0000   0.0000  -2.3893
  -3.700  -0.0207   0.01022   0.00363  -0.0820  0.7865  0.0929  -1.7824   0.0000   0.0000   0.0000  -3.8249
  -3.600  -0.0093   0.01015   0.00354  -0.0820  0.7851  0.0977  -1.7334   0.0000   0.0000   0.0000  -8.8037
  -3.500   0.0020   0.01006   0.00347  -0.0820  0.7836  0.1030  -1.6846   0.0000   0.0000   0.0000  42.0620
  -3.400   0.0134   0.00997   0.00341  -0.0821  0.7815  0.1085  -1.6359   0.0000   0.0000   0.0000   6.5111
  -3.300   0.0248   0.00989   0.00336  -0.0821  0.7795  0.1143  -1.5874   0.0000   0.0000   0.0000   3.6312
  -3.200   0.0363   0.00981   0.00330  -0.0822  0.7776  0.1209  -1.5391   0.0000   0.0000   0.0000   2.5650
  -3.100   0.0476   0.00973   0.00323  -0.0822  0.7758  0.1278  -1.4913   0.0000   0.0000   0.0000   2.0110
  -3.000   0.0590   0.00965   0.00317  -0.0822  0.7743  0.1349  -1.4439   0.0000   0.0000   0.0000   1.6711
  -2.900   0.0703   0.00957   0.00310  -0.0822  0.7728  0.1427  -1.3969   0.0000   0.0000   0.0000   1.4413
  -2.800   0.0817   0.00948   0.00306  -0.0823  0.7706  0.1514  -1.3501   0.0000   0.0000   0.0000   1.2750
  -2.700   0.0931   0.00939   0.00302  -0.0823  0.7685  0.1614  -1.3038   0.0000   0.0000   0.0000   1.1494
  -2.600   0.1045   0.00931   0.00297  -0.0824  0.7665  0.1724  -1.2578   0.0000   0.0000   0.0000   1.0511
  -2.500   0.1159   0.00923   0.00292  -0.0824  0.7647  0.1838  -1.2123   0.0000   0.0000   0.0000   0.9721
  -2.400   0.1273   0.00915   0.00286  -0.0824  0.7631  0.1952  -1.1671   0.0000   0.0000   0.0000   0.9070
  -2.300   0.1387   0.00908   0.00281  -0.0824  0.7617  0.2064  -1.1224   0.0000   0.0000   0.0000   0.8528
  -2.200   0.1501   0.00899   0.00279  -0.0825  0.7595  0.2186  -1.0780   0.0000   0.0000   0.0000   0.8069
  -2.100   0.1615   0.00891   0.00275  -0.0826  0.7572  0.2313  -1.0340   0.0000   0.0000   0.0000   0.7675
  -2.000   0.1730   0.00884   0.00271  -0.0826  0.7551  0.2451  -0.9904   0.0000   0.0000   0.0000   0.7331
  -1.900   0.1843   0.00875   0.00266  -0.0826  0.7532  0.2588  -0.9473   0.0000   0.0000   0.0000   0.7031
  -1.800   0.1957   0.00867   0.00262  -0.0827  0.7514  0.2734  -0.9046   0.0000   0.0000   0.0000   0.6765
  -1.700   0.2070   0.00859   0.00258  -0.0827  0.7493  0.2901  -0.8624   0.0000   0.0000   0.0000   0.6530
  -1.600   0.2184   0.00849   0.00256  -0.0828  0.7467  0.3097  -0.8206   0.0000   0.0000   0.0000   0.6320
  -1.500   0.2297   0.00839   0.00253  -0.0828  0.7444  0.3311  -0.7793   0.0000   0.0000   0.0000   0.6131
  -1.400   0.2410   0.00829   0.00249  -0.0828  0.7423  0.3533  -0.7488   0.0000   0.0000   0.0000   0.5959
  -1.300   0.2522   0.00818   0.00245  -0.0829  0.7405  0.3779  -0.7200   0.0000   0.0000   0.0000   0.5803
  -1.200   0.2634   0.00807   0.00243  -0.0829  0.7384  0.4065  -0.6916   0.0000   0.0000   0.0000   0.5661
  -1.100   0.2745   0.00794   0.00242  -0.0829  0.7358  0.4392  -0.6634   0.0000   0.0000   0.0000   0.5532
  -1.000   0.2856   0.00781   0.00241  -0.0830  0.7335  0.4743  -0.6405   0.0000   0.0000   0.0000   0.5412
  -0.900   0.2966   0.00769   0.00239  -0.0829  0.7313  0.5112  -0.6484   0.0000   0.0000   0.0000   0.5301
  -0.800   0.3076   0.00758   0.00237  -0.0829  0.7293  0.5459  -0.6562   0.0000   0.0000   0.0000   0.5196
  -0.700   0.3187   0.00748   0.00237  -0.0828  0.7268  0.5792  -0.6641   0.0000   0.0000   0.0000   0.5099
  -0.600   0.3296   0.00737   0.00238  -0.0828  0.7240  0.6113  -0.6722   0.0000   0.0000   0.0000   0.5009
  -0.500   0.3404   0.00728   0.00238  -0.0827  0.7215  0.6427  -0.6810   0.0000   0.0000   0.0000   0.4923
  -0.400   0.3513   0.00721   0.00238  -0.0825  0.7193  0.6712  -0.6898   0.0000   0.0000   0.0000   0.4842
  -0.300   0.3623   0.00716   0.00238  -0.0824  0.7171  0.6947  -0.6987   0.0000   0.0000   0.0000   0.4765
  -0.200   0.3733   0.00710   0.00240  -0.0823  0.7141  0.7144  -0.7075   0.0000   0.0000   0.0000   0.4694
  -0.100   0.3842   0.00706   0.00240  -0.0822  0.7114  0.7329  -0.7176   0.0000   0.0000   0.0000   0.4626
   0.000   0.3952   0.00702   0.00240  -0.0820  0.7089  0.7512  -0.7280   0.0000   0.0000   0.0000   0.4561
   0.100   0.4060   0.00699   0.00239  -0.0818  0.7064  0.7678  -0.7383   0.0000   0.0000   0.0000   0.4499
   0.200   0.4168   0.00695   0.00241  -0.0817  0.7029  0.7831  -0.7487   0.0000   0.0000   0.0000   0.4442
   0.300   0.4277   0.00692   0.00241  -0.0815  0.6997  0.7975  -0.7591   0.0000   0.0000   0.0000   0.4386
   0.400   0.4384   0.00690   0.00240  -0.0813  0.6970  0.8110  -0.7695   0.0000   0.0000   0.0000   0.4333
   0.500   0.4491   0.00687   0.00241  -0.0811  0.6937  0.8242  -0.7798   0.0000   0.0000   0.0000   0.4283
   0.600   0.4597   0.00685   0.00241  -0.0809  0.6901  0.8377  -0.7902   0.0000   0.0000   0.0000   0.4235
   0.700   0.4701   0.00683   0.00241  -0.0806  0.6869  0.8508  -0.8004   0.0000   0.0000   0.0000   0.4188
   0.800   0.4804   0.00681   0.00241  -0.0802  0.6836  0.8640  -0.8106   0.0000   0.0000   0.0000   0.4144
   0.900   0.4906   0.00679   0.00242  -0.0799  0.6798  0.8777  -0.8207   0.0000   0.0000   0.0000   0.4101
   1.000   0.5005   0.00677   0.00242  -0.0795  0.6764  0.8913  -0.8307   0.0000   0.0000   0.0000   0.4059
   1.100   0.5103   0.00676   0.00242  -0.0790  0.6731  0.9054  -0.8412   0.0000   0.0000   0.0000   0.4018
   1.200   0.5202   0.00675   0.00243  -0.0786  0.6693  0.9203  -0.8519   0.0000   0.0000   0.0000   0.3979
   1.300   0.5306   0.00674   0.00242  -0.0783  0.6660  0.9347  -0.8630   0.0000   0.0000   0.0000   0.3942
   1.400   0.5425   0.00674   0.00242  -0.0783  0.6629  0.9488  -0.8750   0.0000   0.0000   0.0000   0.3908
   1.500   0.5562   0.00673   0.00242  -0.0787  0.6589  0.9619  -0.8881   0.0000   0.0000   0.0000   0.3879
   1.600   0.5715   0.00674   0.00241  -0.0795  0.6552  0.9729  -0.9027   0.0000   0.0000   0.0000   0.3855
   1.700   0.5874   0.00676   0.00240  -0.0805  0.6516  0.9824  -0.9199   0.0000   0.0000   0.0000   0.3833
   1.800   0.6036   0.00676   0.00240  -0.0816  0.6472  0.9906  -0.9373   0.0000   0.0000   0.0000   0.3812
   1.900   0.6200   0.00679   0.00239  -0.0827  0.6432  0.9980  -0.9550   0.0000   0.0000   0.0000   0.3794
   2.000   0.6322   0.00681   0.00240  -0.0829  0.6389  1.0000  -0.9702   0.0000   0.0000   0.0000   0.3771
   2.100   0.6429   0.00684   0.00241  -0.0828  0.6343  1.0000  -0.9844   0.0000   0.0000   0.0000   0.3747
   2.200   0.6537   0.00688   0.00241  -0.0828  0.6301  1.0000  -0.9987   0.0000   0.0000   0.0000   0.3723
   2.300   0.6646   0.00691   0.00243  -0.0827  0.6251  1.0000  -1.0135   0.0000   0.0000   0.0000   0.3701
   2.400   0.6753   0.00696   0.00244  -0.0826  0.6207  1.0000  -1.0284   0.0000   0.0000   0.0000   0.3678
   2.500   0.6863   0.00699   0.00246  -0.0826  0.6154  1.0000  -1.0434   0.0000   0.0000   0.0000   0.3657
   2.600   0.6971   0.00704   0.00247  -0.0825  0.6104  1.0000  -1.0583   0.0000   0.0000   0.0000   0.3637
   2.700   0.7080   0.00708   0.00249  -0.0825  0.6049  1.0000  -1.0734   0.0000   0.0000   0.0000   0.3617
   2.800   0.7188   0.00713   0.00251  -0.0824  0.5998  1.0000  -1.0885   0.0000   0.0000   0.0000   0.3597
   2.900   0.7298   0.00718   0.00254  -0.0824  0.5944  1.0000  -1.1042   0.0000   0.0000   0.0000   0.3578
   3.000   0.7406   0.00724   0.00256  -0.0823  0.5893  1.0000  -1.1204   0.0000   0.0000   0.0000   0.3560
   3.100   0.7515   0.00728   0.00259  -0.0823  0.5841  1.0000  -1.1369   0.0000   0.0000   0.0000   0.3542
   3.200   0.7624   0.00734   0.00262  -0.0823  0.5789  1.0000  -1.1533   0.0000   0.0000   0.0000   0.3525
   3.300   0.7733   0.00740   0.00266  -0.0822  0.5738  1.0000  -1.1698   0.0000   0.0000   0.0000   0.3508
   3.400   0.7842   0.00746   0.00271  -0.0822  0.5684  1.0000  -1.1873   0.0000   0.0000   0.0000   0.3492
   3.500   0.7950   0.00752   0.00274  -0.0821  0.5631  1.0000  -1.2058   0.0000   0.0000   0.0000   0.3476
   3.600   0.8058   0.00758   0.00278  -0.0821  0.5575  1.0000  -1.2243   0.0000   0.0000   0.0000   0.3460
   3.700   0.8166   0.00765   0.00282  -0.0820  0.5520  1.0000  -1.2429   0.0000   0.0000   0.0000   0.3445
   3.800   0.8274   0.00772   0.00287  -0.0820  0.5465  1.0000  -1.2615   0.0000   0.0000   0.0000   0.3430
   3.900   0.8382   0.00779   0.00291  -0.0819  0.5409  1.0000  -1.2801   0.0000   0.0000   0.0000   0.3416
   4.000   0.8489   0.00787   0.00296  -0.0818  0.5353  1.0000  -1.2988   0.0000   0.0000   0.0000   0.3401
   4.100   0.8597   0.00794   0.00301  -0.0818  0.5294  1.0000  -1.3176   0.0000   0.0000   0.0000   0.3388
   4.200   0.8702   0.00802   0.00306  -0.0817  0.5235  1.0000  -1.3389   0.0000   0.0000   0.0000   0.3374
   4.300   0.8810   0.00809   0.00312  -0.0816  0.5173  1.0000  -1.3608   0.0000   0.0000   0.0000   0.3361
   4.400   0.8914   0.00819   0.00317  -0.0815  0.5112  1.0000  -1.3824   0.0000   0.0000   0.0000   0.3348
   4.500   0.9021   0.00827   0.00323  -0.0815  0.5043  1.0000  -1.4043   0.0000   0.0000   0.0000   0.3335
   4.600   0.9126   0.00836   0.00329  -0.0814  0.4979  1.0000  -1.4261   0.0000   0.0000   0.0000   0.3322
   4.700   0.9230   0.00845   0.00336  -0.0813  0.4912  1.0000  -1.4497   0.0000   0.0000   0.0000   0.3310
   4.800   0.9336   0.00854   0.00342  -0.0812  0.4845  1.0000  -1.4742   0.0000   0.0000   0.0000   0.3298
   4.900   0.9439   0.00864   0.00349  -0.0811  0.4781  1.0000  -1.4985   0.0000   0.0000   0.0000   0.3286
   5.000   0.9545   0.00873   0.00356  -0.0810  0.4714  1.0000  -1.5231   0.0000   0.0000   0.0000   0.3275
   5.100   0.9648   0.00883   0.00363  -0.0809  0.4651  1.0000  -1.5476   0.0000   0.0000   0.0000   0.3264
   5.200   0.9751   0.00894   0.00374  -0.0808  0.4586  1.0000  -1.5721   0.0000   0.0000   0.0000   0.3252
   5.300   0.9856   0.00903   0.00381  -0.0807  0.4518  1.0000  -1.5977   0.0000   0.0000   0.0000   0.3241
   5.400   0.9957   0.00915   0.00389  -0.0806  0.4449  1.0000  -1.6239   0.0000   0.0000   0.0000   0.3231
   5.500   1.0059   0.00926   0.00397  -0.0805  0.4376  1.0000  -1.6504   0.0000   0.0000   0.0000   0.3220
   5.600   1.0161   0.00937   0.00406  -0.0803  0.4304  1.0000  -1.6770   0.0000   0.0000   0.0000   0.3210
   5.700   1.0261   0.00949   0.00415  -0.0802  0.4233  1.0000  -1.7034   0.0000   0.0000   0.0000   0.3199
   5.800   1.0362   0.00961   0.00424  -0.0801  0.4160  1.0000  -1.7305   0.0000   0.0000   0.0000   0.3189
   5.900   1.0463   0.00972   0.00433  -0.0799  0.4089  1.0000  -1.7620   0.0000   0.0000   0.0000   0.3179
   6.000   1.0561   0.00986   0.00443  -0.0798  0.4018  1.0000  -1.7933   0.0000   0.0000   0.0000   0.3169
   6.100   1.0660   0.00999   0.00452  -0.0796  0.3941  1.0000  -1.8248   0.0000   0.0000   0.0000   0.3159
   6.200   1.0759   0.01012   0.00463  -0.0795  0.3865  1.0000  -1.8565   0.0000   0.0000   0.0000   0.3150
   6.300   1.0856   0.01026   0.00473  -0.0793  0.3791  1.0000  -1.8880   0.0000   0.0000   0.0000   0.3140
   6.400   1.0952   0.01041   0.00484  -0.0791  0.3715  1.0000  -1.9195   0.0000   0.0000   0.0000   0.3131
   6.500   1.1050   0.01054   0.00495  -0.0789  0.3638  1.0000  -1.9567   0.0000   0.0000   0.0000   0.3122
   6.600   1.1147   0.01068   0.00506  -0.0787  0.3566  1.0000  -1.9982   0.0000   0.0000   0.0000   0.3113
   6.800   1.1337   0.01098   0.00530  -0.0783  0.3422  1.0000  -2.0815   0.0000   0.0000   0.0000   0.3095
   6.900   1.1432   0.01114   0.00542  -0.0781  0.3349  1.0000  -2.1234   0.0000   0.0000   0.0000   0.3086
   7.000   1.1523   0.01131   0.00555  -0.0779  0.3272  1.0000  -2.1650   0.0000   0.0000   0.0000   0.3077
   7.100   1.1615   0.01147   0.00569  -0.0776  0.3194  1.0000  -2.2069   0.0000   0.0000   0.0000   0.3068
   7.200   1.1708   0.01164   0.00585  -0.0774  0.3118  1.0000  -2.2520   0.0000   0.0000   0.0000   0.3060
   7.300   1.1798   0.01181   0.00599  -0.0771  0.3042  1.0000  -2.3002   0.0000   0.0000   0.0000   0.3051
   7.500   1.1978   0.01217   0.00628  -0.0766  0.2890  1.0000  -2.3973   0.0000   0.0000   0.0000   0.3034
   7.600   1.2066   0.01235   0.00643  -0.0763  0.2817  1.0000  -2.4461   0.0000   0.0000   0.0000   0.3025
   7.700   1.2152   0.01255   0.00659  -0.0760  0.2745  1.0000  -2.4944   0.0000   0.0000   0.0000   0.3017
   7.800   1.2238   0.01274   0.00675  -0.0757  0.2671  1.0000  -2.5433   0.0000   0.0000   0.0000   0.3009
   7.900   1.2325   0.01292   0.00690  -0.0754  0.2602  1.0000  -2.5925   0.0000   0.0000   0.0000   0.3000
   8.000   1.2409   0.01313   0.00707  -0.0750  0.2536  1.0000  -2.6412   0.0000   0.0000   0.0000   0.2992
   8.100   1.2494   0.01332   0.00724  -0.0747  0.2469  1.0000  -2.6906   0.0000   0.0000   0.0000   0.2984
   8.200   1.2579   0.01351   0.00740  -0.0744  0.2408  1.0000  -2.7403   0.0000   0.0000   0.0000   0.2976
   8.300   1.2658   0.01373   0.00759  -0.0740  0.2348  1.0000  -2.7887   0.0000   0.0000   0.0000   0.2968
   8.400   1.2743   0.01392   0.00776  -0.0736  0.2285  1.0000  -2.8389   0.0000   0.0000   0.0000   0.2960
   8.500   1.2822   0.01413   0.00794  -0.0732  0.2224  1.0000  -2.8879   0.0000   0.0000   0.0000   0.2952
   8.600   1.2899   0.01436   0.00813  -0.0728  0.2161  1.0000  -2.9367   0.0000   0.0000   0.0000   0.2943
   8.700   1.2979   0.01456   0.00832  -0.0724  0.2097  1.0000  -2.9865   0.0000   0.0000   0.0000   0.2935
   8.800   1.3053   0.01480   0.00852  -0.0720  0.2036  1.0000  -3.0349   0.0000   0.0000   0.0000   0.2927
   8.900   1.3128   0.01502   0.00871  -0.0715  0.1973  1.0000  -3.0841   0.0000   0.0000   0.0000   0.2919
   9.000   1.3201   0.01524   0.00891  -0.0710  0.1916  1.0000  -3.1326   0.0000   0.0000   0.0000   0.2911
   9.100   1.3262   0.01549   0.00913  -0.0703  0.1863  1.0000  -3.1784   0.0000   0.0000   0.0000   0.2902
   9.200   1.3332   0.01570   0.00932  -0.0698  0.1810  1.0000  -3.2268   0.0000   0.0000   0.0000   0.2893
   9.300   1.3392   0.01597   0.00959  -0.0691  0.1760  1.0000  -3.2727   0.0000   0.0000   0.0000   0.2885
   9.400   1.3461   0.01620   0.00981  -0.0686  0.1708  1.0000  -3.3211   0.0000   0.0000   0.0000   0.2876
   9.500   1.3521   0.01648   0.01006  -0.0680  0.1661  1.0000  -3.3673   0.0000   0.0000   0.0000   0.2868
   9.600   1.3587   0.01673   0.01030  -0.0674  0.1613  1.0000  -3.4154   0.0000   0.0000   0.0000   0.2860
   9.700   1.3646   0.01703   0.01057  -0.0668  0.1570  1.0000  -3.4616   0.0000   0.0000   0.0000   0.2852
   9.800   1.3711   0.01729   0.01083  -0.0663  0.1526  1.0000  -3.5097   0.0000   0.0000   0.0000   0.2844
   9.900   1.3767   0.01761   0.01112  -0.0657  0.1486  1.0000  -3.5555   0.0000   0.0000   0.0000   0.2836
  10.000   1.3835   0.01787   0.01138  -0.0652  0.1444  1.0000  -3.6047   0.0000   0.0000   0.0000   0.2829
  10.200   1.3957   0.01847   0.01196  -0.0641  0.1366  1.0000  -3.7000   0.0000   0.0000   0.0000   0.2814
  10.300   1.4013   0.01880   0.01228  -0.0636  0.1328  1.0000  -3.7464   0.0000   0.0000   0.0000   0.2806
  10.400   1.4075   0.01910   0.01257  -0.0631  0.1291  1.0000  -3.7949   0.0000   0.0000   0.0000   0.2799
  10.500   1.4132   0.01944   0.01289  -0.0625  0.1254  1.0000  -3.8419   0.0000   0.0000   0.0000   0.2792
  10.600   1.4190   0.01977   0.01322  -0.0620  0.1219  1.0000  -3.8894   0.0000   0.0000   0.0000   0.2785
  10.700   1.4247   0.02011   0.01355  -0.0615  0.1182  1.0000  -3.9367   0.0000   0.0000   0.0000   0.2778
  10.800   1.4301   0.02048   0.01391  -0.0610  0.1149  1.0000  -3.9830   0.0000   0.0000   0.0000   0.2771
  10.900   1.4358   0.02083   0.01425  -0.0605  0.1115  1.0000  -4.0306   0.0000   0.0000   0.0000   0.2764
  11.000   1.4404   0.02125   0.01465  -0.0599  0.1084  1.0000  -4.0752   0.0000   0.0000   0.0000   0.2757
  11.100   1.4463   0.02159   0.01500  -0.0594  0.1051  1.0000  -4.1237   0.0000   0.0000   0.0000   0.2750
  11.200   1.4511   0.02201   0.01541  -0.0589  0.1021  1.0000  -4.1687   0.0000   0.0000   0.0000   0.2743
  11.300   1.4563   0.02240   0.01582  -0.0584  0.0992  1.0000  -4.2155   0.0000   0.0000   0.0000   0.2736
  11.400   1.4612   0.02282   0.01623  -0.0578  0.0963  1.0000  -4.2610   0.0000   0.0000   0.0000   0.2730
  11.500   1.4657   0.02327   0.01667  -0.0573  0.0937  1.0000  -4.3055   0.0000   0.0000   0.0000   0.2723
  11.600   1.4708   0.02368   0.01708  -0.0568  0.0909  1.0000  -4.3523   0.0000   0.0000   0.0000   0.2716
  11.700   1.4748   0.02417   0.01756  -0.0562  0.0884  1.0000  -4.3953   0.0000   0.0000   0.0000   0.2710
  11.800   1.4799   0.02458   0.01798  -0.0557  0.0858  1.0000  -4.4422   0.0000   0.0000   0.0000   0.2703
  11.900   1.4843   0.02505   0.01845  -0.0552  0.0832  1.0000  -4.4868   0.0000   0.0000   0.0000   0.2697
  12.000   1.4885   0.02554   0.01894  -0.0547  0.0809  1.0000  -4.5306   0.0000   0.0000   0.0000   0.2690
  12.100   1.4930   0.02600   0.01941  -0.0542  0.0785  1.0000  -4.5771   0.0000   0.0000   0.0000   0.2684
  12.200   1.4964   0.02655   0.01995  -0.0536  0.0764  1.0000  -4.6220   0.0000   0.0000   0.0000   0.2678
  12.300   1.5009   0.02702   0.02043  -0.0532  0.0741  1.0000  -4.6708   0.0000   0.0000   0.0000   0.2672
  12.400   1.5047   0.02756   0.02097  -0.0527  0.0719  1.0000  -4.7170   0.0000   0.0000   0.0000   0.2665
  12.500   1.5079   0.02813   0.02154  -0.0521  0.0700  1.0000  -4.7615   0.0000   0.0000   0.0000   0.2659
  12.600   1.5121   0.02863   0.02206  -0.0516  0.0679  1.0000  -4.8094   0.0000   0.0000   0.0000   0.2653
  12.700   1.5151   0.02924   0.02266  -0.0511  0.0661  1.0000  -4.8532   0.0000   0.0000   0.0000   0.2647
  12.800   1.5186   0.02981   0.02324  -0.0506  0.0642  1.0000  -4.8986   0.0000   0.0000   0.0000   0.2641
  12.900   1.5221   0.03038   0.02382  -0.0501  0.0624  1.0000  -4.9443   0.0000   0.0000   0.0000   0.2635
  13.000   1.5244   0.03105   0.02449  -0.0496  0.0608  1.0000  -4.9856   0.0000   0.0000   0.0000   0.2629
  13.100   1.5279   0.03163   0.02509  -0.0491  0.0592  1.0000  -5.0309   0.0000   0.0000   0.0000   0.2624
  13.200   1.5308   0.03227   0.02573  -0.0487  0.0576  1.0000  -5.0744   0.0000   0.0000   0.0000   0.2618
  13.300   1.5324   0.03301   0.02649  -0.0481  0.0563  1.0000  -5.1135   0.0000   0.0000   0.0000   0.2612
  13.400   1.5355   0.03363   0.02714  -0.0477  0.0548  1.0000  -5.1573   0.0000   0.0000   0.0000   0.2607
  13.500   1.5381   0.03431   0.02783  -0.0472  0.0535  1.0000  -5.1995   0.0000   0.0000   0.0000   0.2601
  13.600   1.5396   0.03509   0.02861  -0.0467  0.0523  1.0000  -5.2379   0.0000   0.0000   0.0000   0.2596
  13.700   1.5416   0.03582   0.02936  -0.0463  0.0511  1.0000  -5.2778   0.0000   0.0000   0.0000   0.2590
  13.800   1.5443   0.03651   0.03007  -0.0459  0.0499  1.0000  -5.3203   0.0000   0.0000   0.0000   0.2585
  13.900   1.5459   0.03729   0.03087  -0.0454  0.0488  1.0000  -5.3590   0.0000   0.0000   0.0000   0.2580
  14.000   1.5464   0.03819   0.03177  -0.0449  0.0480  1.0000  -5.3933   0.0000   0.0000   0.0000   0.2575
  14.100   1.5488   0.03892   0.03253  -0.0446  0.0469  1.0000  -5.4341   0.0000   0.0000   0.0000   0.2570
  14.200   1.5507   0.03969   0.03333  -0.0442  0.0459  1.0000  -5.4737   0.0000   0.0000   0.0000   0.2565
  14.300   1.5517   0.04056   0.03421  -0.0438  0.0451  1.0000  -5.5099   0.0000   0.0000   0.0000   0.2560
  14.400   1.5517   0.04155   0.03520  -0.0434  0.0444  1.0000  -5.5421   0.0000   0.0000   0.0000   0.2555
  14.500   1.5529   0.04242   0.03611  -0.0430  0.0436  1.0000  -5.5782   0.0000   0.0000   0.0000   0.2551
  14.600   1.5548   0.04325   0.03698  -0.0427  0.0428  1.0000  -5.6192   0.0000   0.0000   0.0000   0.2546
  14.700   1.5559   0.04417   0.03792  -0.0424  0.0421  1.0000  -5.6587   0.0000   0.0000   0.0000   0.2542
  14.800   1.5562   0.04518   0.03895  -0.0422  0.0414  1.0000  -5.6947   0.0000   0.0000   0.0000   0.2538
  14.900   1.5554   0.04632   0.04009  -0.0419  0.0409  1.0000  -5.7262   0.0000   0.0000   0.0000   0.2534
  15.000   1.5560   0.04732   0.04113  -0.0416  0.0403  1.0000  -5.7626   0.0000   0.0000   0.0000   0.2530
  15.100   1.5573   0.04827   0.04211  -0.0414  0.0397  1.0000  -5.8022   0.0000   0.0000   0.0000   0.2526
  15.200   1.5581   0.04928   0.04315  -0.0412  0.0391  1.0000  -5.8399   0.0000   0.0000   0.0000   0.2523
  15.300   1.5584   0.05036   0.04426  -0.0410  0.0386  1.0000  -5.8754   0.0000   0.0000   0.0000   0.2519
  15.400   1.5578   0.05155   0.04546  -0.0409  0.0381  1.0000  -5.9074   0.0000   0.0000   0.0000   0.2516
  15.500   1.5562   0.05286   0.04679  -0.0407  0.0377  1.0000  -5.9347   0.0000   0.0000   0.0000   0.2513
  15.600   1.5555   0.05408   0.04805  -0.0406  0.0373  1.0000  -5.9652   0.0000   0.0000   0.0000   0.2510
  15.700   1.5562   0.05515   0.04917  -0.0405  0.0368  1.0000  -6.0017   0.0000   0.0000   0.0000   0.2507
  15.800   1.5564   0.05630   0.05036  -0.0404  0.0363  1.0000  -6.0361   0.0000   0.0000   0.0000   0.2504
  15.900   1.5563   0.05751   0.05159  -0.0404  0.0358  1.0000  -6.0692   0.0000   0.0000   0.0000   0.2502
  16.000   1.5556   0.05878   0.05290  -0.0404  0.0355  1.0000  -6.1002   0.0000   0.0000   0.0000   0.2499
  16.100   1.5542   0.06015   0.05429  -0.0404  0.0351  1.0000  -6.1277   0.0000   0.0000   0.0000   0.2497
  16.200   1.5518   0.06165   0.05580  -0.0404  0.0348  1.0000  -6.1506   0.0000   0.0000   0.0000   0.2496
  16.300   1.5484   0.06329   0.05747  -0.0405  0.0345  1.0000  -6.1680   0.0000   0.0000   0.0000   0.2494
  16.400   1.5487   0.06450   0.05872  -0.0405  0.0342  1.0000  -6.2016   0.0000   0.0000   0.0000   0.2492
  16.500   1.5485   0.06578   0.06006  -0.0406  0.0338  1.0000  -6.2325   0.0000   0.0000   0.0000   0.2490
  16.600   1.5477   0.06714   0.06145  -0.0407  0.0334  1.0000  -6.2612   0.0000   0.0000   0.0000   0.2489
  16.700   1.5465   0.06855   0.06290  -0.0408  0.0331  1.0000  -6.2941   0.0000   0.0000   0.0000   0.2487
  16.800   1.5450   0.07002   0.06440  -0.0409  0.0328  1.0000  -6.3330   0.0000   0.0000   0.0000   0.2486
  16.900   1.5434   0.07152   0.06593  -0.0411  0.0326  1.0000  -6.3706   0.0000   0.0000   0.0000   0.2485
  17.000   1.5413   0.07308   0.06752  -0.0413  0.0323  1.0000  -6.4058   0.0000   0.0000   0.0000   0.2484
  17.100   1.5387   0.07473   0.06920  -0.0415  0.0321  1.0000  -6.4374   0.0000   0.0000   0.0000   0.2484
  17.200   1.5355   0.07645   0.07095  -0.0418  0.0319  1.0000  -6.4650   0.0000   0.0000   0.0000   0.2484
  17.300   1.5316   0.07828   0.07279  -0.0421  0.0317  1.0000  -6.4877   0.0000   0.0000   0.0000   0.2484
  17.400   1.5299   0.07984   0.07439  -0.0424  0.0315  1.0000  -6.5235   0.0000   0.0000   0.0000   0.2484
  17.500   1.5286   0.08134   0.07595  -0.0426  0.0313  1.0000  -6.5623   0.0000   0.0000   0.0000   0.2483
  17.600   1.5270   0.08291   0.07756  -0.0429  0.0310  1.0000  -6.5984   0.0000   0.0000   0.0000   0.2483
  17.700   1.5253   0.08450   0.07919  -0.0432  0.0308  1.0000  -6.6336   0.0000   0.0000   0.0000   0.2483
  17.800   1.5233   0.08613   0.08086  -0.0436  0.0306  1.0000  -6.6672   0.0000   0.0000   0.0000   0.2483
  17.900   1.5212   0.08777   0.08254  -0.0439  0.0304  1.0000  -6.7004   0.0000   0.0000   0.0000   0.2484
  18.000   1.5191   0.08943   0.08423  -0.0443  0.0302  1.0000  -6.7328   0.0000   0.0000   0.0000   0.2484
  18.100   1.5168   0.09111   0.08595  -0.0447  0.0300  1.0000  -6.7641   0.0000   0.0000   0.0000   0.2485
  18.200   1.5145   0.09280   0.08766  -0.0451  0.0298  1.0000  -6.7955   0.0000   0.0000   0.0000   0.2485
  18.300   1.5121   0.09452   0.08941  -0.0456  0.0297  1.0000  -6.8254   0.0000   0.0000   0.0000   0.2486
  18.400   1.5096   0.09624   0.09116  -0.0460  0.0295  1.0000  -6.8550   0.0000   0.0000   0.0000   0.2488
  18.500   1.5069   0.09800   0.09295  -0.0465  0.0294  1.0000  -6.8823   0.0000   0.0000   0.0000   0.2489
  18.600   1.5041   0.09975   0.09470  -0.0470  0.0292  1.0000  -6.9091   0.0000   0.0000   0.0000   0.2490
  18.700   1.5013   0.10149   0.09646  -0.0475  0.0291  1.0000  -6.9353   0.0000   0.0000   0.0000   0.2491
  18.800   1.4999   0.10311   0.09813  -0.0480  0.0289  1.0000  -6.9698   0.0000   0.0000   0.0000   0.2492
  18.900   1.4983   0.10476   0.09983  -0.0485  0.0287  1.0000  -7.0028   0.0000   0.0000   0.0000   0.2494
  19.000   1.4968   0.10639   0.10151  -0.0490  0.0285  1.0000  -7.0364   0.0000   0.0000   0.0000   0.2495
  19.100   1.4952   0.10805   0.10321  -0.0496  0.0283  1.0000  -7.0690   0.0000   0.0000   0.0000   0.2497
  19.200   1.4938   0.10968   0.10488  -0.0502  0.0282  1.0000  -7.1028   0.0000   0.0000   0.0000   0.2498
  19.300   1.4923   0.11133   0.10656  -0.0508  0.0280  1.0000  -7.1356   0.0000   0.0000   0.0000   0.2500
  19.400   1.4909   0.11294   0.10821  -0.0514  0.0278  1.0000  -7.1697   0.0000   0.0000   0.0000   0.2502
  19.500   1.4895   0.11456   0.10986  -0.0520  0.0276  1.0000  -7.2035   0.0000   0.0000   0.0000   0.2504
  19.600   1.4883   0.11616   0.11148  -0.0526  0.0274  1.0000  -7.2383   0.0000   0.0000   0.0000   0.2506
  19.700   1.4872   0.11774   0.11308  -0.0532  0.0273  1.0000  -7.2743   0.0000   0.0000   0.0000   0.2508
  19.800   1.4862   0.11930   0.11466  -0.0539  0.0271  1.0000  -7.3104   0.0000   0.0000   0.0000   0.2510
  19.900   1.4854   0.12081   0.11618  -0.0545  0.0270  1.0000  -7.3484   0.0000   0.0000   0.0000   0.2512
  20.000   1.4847   0.12227   0.11765  -0.0551  0.0268  1.0000  -7.3874   0.0000   0.0000   0.0000   0.2513


