xflr5 v6.57

 Calculated polar for: QX0123

 1 1 Reynolds number fixed          Mach number fixed         

 xtrf =   1.000 (top)        1.000 (bottom)
 Mach =   0.000     Re =     0.920 e 6     Ncrit =   9.000

  alpha     CL        CD       CDp       Cm    Top Xtr Bot Xtr   Cpmin    Chinge    XCp    
 ------- -------- --------- --------- -------- ------- ------- -------- --------- ---------
 -10.000  -0.7233   0.01705   0.01193  -0.0799  0.8476  0.0208  -6.5027   0.0000   0.0000   0.0000   0.1265
  -9.900  -0.7126   0.01692   0.01178  -0.0799  0.8462  0.0211  -6.3958   0.0000   0.0000   0.0000   0.1249
  -9.800  -0.7019   0.01680   0.01164  -0.0799  0.8449  0.0214  -6.2890   0.0000   0.0000   0.0000   0.1233
  -9.700  -0.6911   0.01668   0.01150  -0.0799  0.8436  0.0217  -6.1828   0.0000   0.0000   0.0000   0.1216
  -9.600  -0.6804   0.01656   0.01136  -0.0798  0.8425  0.0221  -6.0776   0.0000   0.0000   0.0000   0.1198
  -9.500  -0.6697   0.01645   0.01121  -0.0798  0.8413  0.0224  -5.9736   0.0000   0.0000   0.0000   0.1181
  -9.400  -0.6589   0.01633   0.01107  -0.0798  0.8401  0.0227  -5.8705   0.0000   0.0000   0.0000   0.1162
  -9.300  -0.6480   0.01619   0.01091  -0.0798  0.8388  0.0229  -5.7682   0.0000   0.0000   0.0000   0.1141
  -9.200  -0.6372   0.01603   0.01073  -0.0798  0.8374  0.0231  -5.6680   0.0000   0.0000   0.0000   0.1121
  -9.100  -0.6265   0.01587   0.01054  -0.0798  0.8360  0.0233  -5.5689   0.0000   0.0000   0.0000   0.1100
  -9.000  -0.6157   0.01572   0.01036  -0.0798  0.8346  0.0235  -5.4703   0.0000   0.0000   0.0000   0.1078
  -8.900  -0.6049   0.01557   0.01019  -0.0798  0.8334  0.0236  -5.3721   0.0000   0.0000   0.0000   0.1056
  -8.800  -0.5941   0.01543   0.01001  -0.0798  0.8322  0.0237  -5.2745   0.0000   0.0000   0.0000   0.1032
  -8.700  -0.5833   0.01529   0.00984  -0.0798  0.8310  0.0238  -5.1775   0.0000   0.0000   0.0000   0.1008
  -8.600  -0.5726   0.01516   0.00968  -0.0797  0.8298  0.0239  -5.0812   0.0000   0.0000   0.0000   0.0983
  -8.500  -0.5616   0.01502   0.00952  -0.0797  0.8285  0.0240  -4.9850   0.0000   0.0000   0.0000   0.0956
  -8.400  -0.5507   0.01487   0.00936  -0.0797  0.8270  0.0241  -4.8892   0.0000   0.0000   0.0000   0.0928
  -8.300  -0.5397   0.01473   0.00920  -0.0798  0.8255  0.0241  -4.7942   0.0000   0.0000   0.0000   0.0898
  -8.200  -0.5287   0.01459   0.00903  -0.0798  0.8241  0.0242  -4.7000   0.0000   0.0000   0.0000   0.0868
  -8.100  -0.5192   0.01411   0.00849  -0.0797  0.8226  0.0244  -4.6260   0.0000   0.0000   0.0000   0.0842
  -8.000  -0.5093   0.01371   0.00803  -0.0796  0.8213  0.0247  -4.5633   0.0000   0.0000   0.0000   0.0814
  -7.900  -0.4991   0.01338   0.00766  -0.0795  0.8200  0.0250  -4.4966   0.0000   0.0000   0.0000   0.0784
  -7.800  -0.4887   0.01312   0.00735  -0.0794  0.8188  0.0252  -4.4273   0.0000   0.0000   0.0000   0.0751
  -7.700  -0.4781   0.01288   0.00709  -0.0794  0.8176  0.0255  -4.3561   0.0000   0.0000   0.0000   0.0716
  -7.600  -0.4673   0.01266   0.00685  -0.0794  0.8161  0.0257  -4.2834   0.0000   0.0000   0.0000   0.0677
  -7.500  -0.4564   0.01246   0.00663  -0.0794  0.8147  0.0260  -4.2099   0.0000   0.0000   0.0000   0.0636
  -7.400  -0.4454   0.01228   0.00643  -0.0794  0.8132  0.0262  -4.1359   0.0000   0.0000   0.0000   0.0593
  -7.300  -0.4344   0.01212   0.00625  -0.0794  0.8118  0.0265  -4.0617   0.0000   0.0000   0.0000   0.0547
  -7.200  -0.4234   0.01196   0.00608  -0.0794  0.8104  0.0267  -3.9873   0.0000   0.0000   0.0000   0.0500
  -7.100  -0.4123   0.01182   0.00592  -0.0794  0.8091  0.0270  -3.9130   0.0000   0.0000   0.0000   0.0449
  -7.000  -0.4012   0.01169   0.00576  -0.0794  0.8079  0.0272  -3.8389   0.0000   0.0000   0.0000   0.0395
  -6.900  -0.3901   0.01157   0.00562  -0.0793  0.8068  0.0275  -3.7652   0.0000   0.0000   0.0000   0.0339
  -6.800  -0.3789   0.01144   0.00548  -0.0794  0.8054  0.0278  -3.6914   0.0000   0.0000   0.0000   0.0276
  -6.700  -0.3676   0.01132   0.00534  -0.0794  0.8040  0.0281  -3.6181   0.0000   0.0000   0.0000   0.0210
  -6.600  -0.3563   0.01120   0.00521  -0.0794  0.8025  0.0284  -3.5453   0.0000   0.0000   0.0000   0.0140
  -6.500  -0.3450   0.01108   0.00508  -0.0794  0.8011  0.0288  -3.4732   0.0000   0.0000   0.0000   0.0065
  -6.400  -0.3337   0.01097   0.00495  -0.0795  0.7997  0.0292  -3.4017   0.0000   0.0000   0.0000  -0.0014
  -6.300  -0.3224   0.01086   0.00483  -0.0795  0.7984  0.0297  -3.3308   0.0000   0.0000   0.0000  -0.0099
  -6.200  -0.3111   0.01076   0.00470  -0.0795  0.7971  0.0301  -3.2605   0.0000   0.0000   0.0000  -0.0190
  -6.100  -0.2998   0.01067   0.00459  -0.0795  0.7958  0.0306  -3.1905   0.0000   0.0000   0.0000  -0.0288
  -6.000  -0.2884   0.01059   0.00449  -0.0795  0.7944  0.0311  -3.1202   0.0000   0.0000   0.0000  -0.0396
  -5.900  -0.2768   0.01052   0.00442  -0.0795  0.7928  0.0315  -3.0491   0.0000   0.0000   0.0000  -0.0516
  -5.800  -0.2657   0.01032   0.00421  -0.0795  0.7912  0.0330  -2.9862   0.0000   0.0000   0.0000  -0.0639
  -5.700  -0.2546   0.01016   0.00405  -0.0796  0.7896  0.0350  -2.9206   0.0000   0.0000   0.0000  -0.0773
  -5.600  -0.2432   0.01006   0.00396  -0.0796  0.7881  0.0365  -2.8515   0.0000   0.0000   0.0000  -0.0924
  -5.500  -0.2317   0.00999   0.00388  -0.0796  0.7868  0.0379  -2.7829   0.0000   0.0000   0.0000  -0.1090
  -5.400  -0.2202   0.00994   0.00381  -0.0796  0.7855  0.0390  -2.7145   0.0000   0.0000   0.0000  -0.1275
  -5.300  -0.2089   0.00984   0.00369  -0.0797  0.7842  0.0404  -2.6493   0.0000   0.0000   0.0000  -0.1475
  -5.200  -0.1976   0.00970   0.00356  -0.0797  0.7828  0.0426  -2.5946   0.0000   0.0000   0.0000  -0.1701
  -5.100  -0.1861   0.00961   0.00349  -0.0798  0.7812  0.0442  -2.5405   0.0000   0.0000   0.0000  -0.1959
  -5.000  -0.1746   0.00953   0.00342  -0.0798  0.7795  0.0455  -2.4862   0.0000   0.0000   0.0000  -0.2252
  -4.900  -0.1630   0.00947   0.00335  -0.0799  0.7780  0.0467  -2.4319   0.0000   0.0000   0.0000  -0.2586
  -4.700  -0.1401   0.00930   0.00316  -0.0799  0.7751  0.0497  -2.3262   0.0000   0.0000   0.0000  -0.3410
  -4.600  -0.1287   0.00922   0.00309  -0.0799  0.7738  0.0515  -2.2729   0.0000   0.0000   0.0000  -0.3931
  -4.500  -0.1172   0.00916   0.00302  -0.0800  0.7724  0.0532  -2.2196   0.0000   0.0000   0.0000  -0.4557
  -4.400  -0.1056   0.00910   0.00296  -0.0800  0.7707  0.0548  -2.1663   0.0000   0.0000   0.0000  -0.5335
  -4.300  -0.0940   0.00903   0.00289  -0.0801  0.7690  0.0566  -2.1141   0.0000   0.0000   0.0000  -0.6297
  -4.200  -0.0825   0.00893   0.00281  -0.0802  0.7672  0.0593  -2.0622   0.0000   0.0000   0.0000  -0.7517
  -4.100  -0.0710   0.00886   0.00274  -0.0802  0.7656  0.0619  -2.0101   0.0000   0.0000   0.0000  -0.9138
  -3.900  -0.0481   0.00871   0.00260  -0.0803  0.7625  0.0681  -1.9075   0.0000   0.0000   0.0000  -1.4675
  -3.800  -0.0365   0.00866   0.00255  -0.0803  0.7608  0.0716  -1.8563   0.0000   0.0000   0.0000  -2.0102
  -3.700  -0.0249   0.00857   0.00250  -0.0804  0.7588  0.0761  -1.8054   0.0000   0.0000   0.0000  -3.0576
  -3.500  -0.0018   0.00844   0.00240  -0.0805  0.7550  0.0851  -1.7043   0.0000   0.0000   0.0000  -45.6697
  -3.400   0.0098   0.00839   0.00234  -0.0805  0.7533  0.0893  -1.6543   0.0000   0.0000   0.0000   8.6756
  -3.300   0.0213   0.00832   0.00229  -0.0806  0.7516  0.0938  -1.6049   0.0000   0.0000   0.0000   4.1253
  -3.200   0.0328   0.00828   0.00224  -0.0806  0.7500  0.0980  -1.5557   0.0000   0.0000   0.0000   2.7598
  -3.100   0.0444   0.00820   0.00219  -0.0807  0.7481  0.1027  -1.5068   0.0000   0.0000   0.0000   2.1042
  -3.000   0.0560   0.00814   0.00215  -0.0808  0.7462  0.1073  -1.4583   0.0000   0.0000   0.0000   1.7201
  -2.900   0.0676   0.00808   0.00211  -0.0809  0.7443  0.1126  -1.4102   0.0000   0.0000   0.0000   1.4682
  -2.800   0.0792   0.00802   0.00207  -0.0809  0.7425  0.1189  -1.3625   0.0000   0.0000   0.0000   1.2904
  -2.700   0.0907   0.00797   0.00203  -0.0810  0.7408  0.1251  -1.3153   0.0000   0.0000   0.0000   1.1579
  -2.600   0.1023   0.00793   0.00199  -0.0810  0.7390  0.1312  -1.2685   0.0000   0.0000   0.0000   1.0550
  -2.500   0.1139   0.00786   0.00195  -0.0811  0.7367  0.1375  -1.2219   0.0000   0.0000   0.0000   0.9728
  -2.400   0.1255   0.00779   0.00191  -0.0812  0.7344  0.1448  -1.1760   0.0000   0.0000   0.0000   0.9062
  -2.300   0.1370   0.00772   0.00187  -0.0812  0.7322  0.1537  -1.1305   0.0000   0.0000   0.0000   0.8509
  -2.200   0.1485   0.00766   0.00184  -0.0813  0.7302  0.1646  -1.0856   0.0000   0.0000   0.0000   0.8044
  -2.100   0.1599   0.00760   0.00181  -0.0813  0.7283  0.1772  -1.0411   0.0000   0.0000   0.0000   0.7646
  -2.000   0.1715   0.00753   0.00178  -0.0814  0.7260  0.1892  -0.9968   0.0000   0.0000   0.0000   0.7299
  -1.900   0.1831   0.00746   0.00176  -0.0815  0.7237  0.2009  -0.9530   0.0000   0.0000   0.0000   0.6996
  -1.800   0.1947   0.00739   0.00173  -0.0816  0.7216  0.2123  -0.9097   0.0000   0.0000   0.0000   0.6729
  -1.700   0.2062   0.00734   0.00170  -0.0816  0.7197  0.2235  -0.8669   0.0000   0.0000   0.0000   0.6492
  -1.600   0.2177   0.00729   0.00167  -0.0817  0.7178  0.2356  -0.8246   0.0000   0.0000   0.0000   0.6281
  -1.500   0.2293   0.00723   0.00166  -0.0818  0.7154  0.2480  -0.7825   0.0000   0.0000   0.0000   0.6090
  -1.400   0.2409   0.00717   0.00164  -0.0819  0.7129  0.2612  -0.7515   0.0000   0.0000   0.0000   0.5917
  -1.300   0.2524   0.00710   0.00161  -0.0819  0.7104  0.2750  -0.7223   0.0000   0.0000   0.0000   0.5761
  -1.200   0.2639   0.00705   0.00159  -0.0820  0.7081  0.2896  -0.6933   0.0000   0.0000   0.0000   0.5619
  -1.100   0.2754   0.00699   0.00157  -0.0820  0.7058  0.3059  -0.6645   0.0000   0.0000   0.0000   0.5488
  -1.000   0.2869   0.00692   0.00156  -0.0821  0.7031  0.3236  -0.6429   0.0000   0.0000   0.0000   0.5368
  -0.900   0.2985   0.00685   0.00154  -0.0822  0.7006  0.3427  -0.6510   0.0000   0.0000   0.0000   0.5258
  -0.800   0.3099   0.00677   0.00153  -0.0823  0.6982  0.3642  -0.6590   0.0000   0.0000   0.0000   0.5156
  -0.700   0.3212   0.00669   0.00151  -0.0823  0.6960  0.3911  -0.6670   0.0000   0.0000   0.0000   0.5062
  -0.600   0.3326   0.00658   0.00151  -0.0824  0.6931  0.4226  -0.6750   0.0000   0.0000   0.0000   0.4974
  -0.500   0.3439   0.00647   0.00150  -0.0825  0.6900  0.4571  -0.6840   0.0000   0.0000   0.0000   0.4892
  -0.400   0.3550   0.00636   0.00149  -0.0825  0.6871  0.4937  -0.6929   0.0000   0.0000   0.0000   0.4816
  -0.300   0.3663   0.00628   0.00149  -0.0825  0.6843  0.5269  -0.7019   0.0000   0.0000   0.0000   0.4743
  -0.200   0.3776   0.00619   0.00149  -0.0826  0.6808  0.5578  -0.7110   0.0000   0.0000   0.0000   0.4675
  -0.100   0.3888   0.00612   0.00149  -0.0826  0.6774  0.5857  -0.7216   0.0000   0.0000   0.0000   0.4610
   0.000   0.4000   0.00606   0.00150  -0.0826  0.6743  0.6129  -0.7321   0.0000   0.0000   0.0000   0.4549
   0.100   0.4113   0.00600   0.00151  -0.0826  0.6706  0.6391  -0.7427   0.0000   0.0000   0.0000   0.4491
   0.200   0.4225   0.00595   0.00152  -0.0826  0.6670  0.6638  -0.7533   0.0000   0.0000   0.0000   0.4435
   0.300   0.4336   0.00592   0.00153  -0.0825  0.6638  0.6858  -0.7638   0.0000   0.0000   0.0000   0.4383
   0.400   0.4450   0.00588   0.00154  -0.0825  0.6600  0.7034  -0.7745   0.0000   0.0000   0.0000   0.4333
   0.500   0.4563   0.00586   0.00155  -0.0825  0.6564  0.7197  -0.7852   0.0000   0.0000   0.0000   0.4285
   0.600   0.4674   0.00585   0.00156  -0.0824  0.6532  0.7351  -0.7959   0.0000   0.0000   0.0000   0.4239
   0.700   0.4788   0.00582   0.00158  -0.0824  0.6498  0.7492  -0.8066   0.0000   0.0000   0.0000   0.4196
   0.800   0.4901   0.00581   0.00159  -0.0824  0.6462  0.7627  -0.8174   0.0000   0.0000   0.0000   0.4154
   0.900   0.5011   0.00580   0.00161  -0.0823  0.6428  0.7760  -0.8280   0.0000   0.0000   0.0000   0.4114
   1.000   0.5123   0.00579   0.00162  -0.0823  0.6391  0.7894  -0.8388   0.0000   0.0000   0.0000   0.4076
   1.100   0.5234   0.00578   0.00164  -0.0822  0.6351  0.8024  -0.8502   0.0000   0.0000   0.0000   0.4040
   1.300   0.5454   0.00577   0.00167  -0.0820  0.6274  0.8274  -0.8730   0.0000   0.0000   0.0000   0.3970
   1.400   0.5562   0.00577   0.00169  -0.0819  0.6231  0.8401  -0.8844   0.0000   0.0000   0.0000   0.3937
   1.500   0.5669   0.00578   0.00171  -0.0817  0.6189  0.8529  -0.8956   0.0000   0.0000   0.0000   0.3906
   1.600   0.5775   0.00577   0.00173  -0.0815  0.6139  0.8656  -0.9074   0.0000   0.0000   0.0000   0.3874
   1.800   0.5982   0.00578   0.00178  -0.0810  0.6043  0.8924  -0.9339   0.0000   0.0000   0.0000   0.3815
   1.900   0.6080   0.00579   0.00180  -0.0806  0.5997  0.9066  -0.9470   0.0000   0.0000   0.0000   0.3785
   2.000   0.6178   0.00579   0.00182  -0.0802  0.5948  0.9213  -0.9605   0.0000   0.0000   0.0000   0.3757
   2.100   0.6276   0.00581   0.00184  -0.0798  0.5897  0.9358  -0.9740   0.0000   0.0000   0.0000   0.3729
   2.200   0.6382   0.00582   0.00186  -0.0796  0.5844  0.9498  -0.9883   0.0000   0.0000   0.0000   0.3703
   2.300   0.6503   0.00585   0.00188  -0.0797  0.5787  0.9628  -1.0041   0.0000   0.0000   0.0000   0.3681
   2.400   0.6643   0.00588   0.00189  -0.0803  0.5728  0.9736  -1.0214   0.0000   0.0000   0.0000   0.3663
   2.500   0.6790   0.00593   0.00191  -0.0811  0.5670  0.9836  -1.0393   0.0000   0.0000   0.0000   0.3647
   2.600   0.6945   0.00596   0.00192  -0.0820  0.5614  0.9932  -1.0578   0.0000   0.0000   0.0000   0.3633
   2.700   0.7087   0.00602   0.00194  -0.0827  0.5561  1.0000  -1.0754   0.0000   0.0000   0.0000   0.3618
   2.800   0.7198   0.00607   0.00197  -0.0827  0.5508  1.0000  -1.0906   0.0000   0.0000   0.0000   0.3599
   2.900   0.7307   0.00613   0.00200  -0.0827  0.5455  1.0000  -1.1066   0.0000   0.0000   0.0000   0.3580
   3.000   0.7418   0.00618   0.00203  -0.0827  0.5401  1.0000  -1.1231   0.0000   0.0000   0.0000   0.3562
   3.100   0.7527   0.00625   0.00207  -0.0826  0.5347  1.0000  -1.1395   0.0000   0.0000   0.0000   0.3545
   3.200   0.7638   0.00630   0.00210  -0.0826  0.5293  1.0000  -1.1561   0.0000   0.0000   0.0000   0.3528
   3.300   0.7747   0.00637   0.00214  -0.0826  0.5238  1.0000  -1.1727   0.0000   0.0000   0.0000   0.3511
   3.400   0.7858   0.00643   0.00219  -0.0826  0.5183  1.0000  -1.1907   0.0000   0.0000   0.0000   0.3495
   3.500   0.7966   0.00650   0.00223  -0.0826  0.5128  1.0000  -1.2092   0.0000   0.0000   0.0000   0.3479
   3.600   0.8077   0.00656   0.00227  -0.0826  0.5071  1.0000  -1.2280   0.0000   0.0000   0.0000   0.3464
   3.800   0.8295   0.00670   0.00235  -0.0825  0.4947  1.0000  -1.2654   0.0000   0.0000   0.0000   0.3434
   3.900   0.8403   0.00678   0.00240  -0.0825  0.4882  1.0000  -1.2841   0.0000   0.0000   0.0000   0.3420
   4.000   0.8511   0.00686   0.00245  -0.0825  0.4811  1.0000  -1.3029   0.0000   0.0000   0.0000   0.3406
   4.100   0.8620   0.00694   0.00250  -0.0824  0.4746  1.0000  -1.3219   0.0000   0.0000   0.0000   0.3392
   4.200   0.8727   0.00703   0.00255  -0.0824  0.4682  1.0000  -1.3435   0.0000   0.0000   0.0000   0.3379
   4.300   0.8836   0.00710   0.00260  -0.0824  0.4617  1.0000  -1.3656   0.0000   0.0000   0.0000   0.3366
   4.400   0.8943   0.00719   0.00266  -0.0823  0.4558  1.0000  -1.3875   0.0000   0.0000   0.0000   0.3353
   4.500   0.9052   0.00727   0.00271  -0.0823  0.4493  1.0000  -1.4096   0.0000   0.0000   0.0000   0.3341
   4.600   0.9159   0.00736   0.00277  -0.0823  0.4430  1.0000  -1.4318   0.0000   0.0000   0.0000   0.3329
   4.700   0.9265   0.00745   0.00283  -0.0822  0.4365  1.0000  -1.4563   0.0000   0.0000   0.0000   0.3316
   4.800   0.9373   0.00753   0.00289  -0.0822  0.4297  1.0000  -1.4810   0.0000   0.0000   0.0000   0.3305
   4.900   0.9479   0.00764   0.00295  -0.0821  0.4228  1.0000  -1.5056   0.0000   0.0000   0.0000   0.3293
   5.000   0.9584   0.00774   0.00302  -0.0820  0.4155  1.0000  -1.5303   0.0000   0.0000   0.0000   0.3282
   5.100   0.9690   0.00783   0.00309  -0.0820  0.4084  1.0000  -1.5552   0.0000   0.0000   0.0000   0.3271
   5.200   0.9795   0.00794   0.00318  -0.0819  0.4016  1.0000  -1.5800   0.0000   0.0000   0.0000   0.3260
   5.300   0.9900   0.00804   0.00325  -0.0818  0.3944  1.0000  -1.6063   0.0000   0.0000   0.0000   0.3249
   5.400   1.0005   0.00814   0.00333  -0.0818  0.3874  1.0000  -1.6331   0.0000   0.0000   0.0000   0.3239
   5.500   1.0108   0.00826   0.00341  -0.0817  0.3802  1.0000  -1.6597   0.0000   0.0000   0.0000   0.3228
   5.600   1.0211   0.00838   0.00349  -0.0816  0.3726  1.0000  -1.6866   0.0000   0.0000   0.0000   0.3218
   5.700   1.0315   0.00849   0.00357  -0.0815  0.3652  1.0000  -1.7136   0.0000   0.0000   0.0000   0.3208
   5.800   1.0418   0.00861   0.00365  -0.0814  0.3577  1.0000  -1.7432   0.0000   0.0000   0.0000   0.3198
   5.900   1.0519   0.00873   0.00374  -0.0813  0.3502  1.0000  -1.7749   0.0000   0.0000   0.0000   0.3188
   6.000   1.0622   0.00885   0.00382  -0.0812  0.3432  1.0000  -1.8070   0.0000   0.0000   0.0000   0.3179
   6.100   1.0724   0.00897   0.00391  -0.0811  0.3367  1.0000  -1.8390   0.0000   0.0000   0.0000   0.3169
   6.200   1.0826   0.00909   0.00400  -0.0810  0.3296  1.0000  -1.8712   0.0000   0.0000   0.0000   0.3160
   6.300   1.0927   0.00922   0.00410  -0.0809  0.3225  1.0000  -1.9035   0.0000   0.0000   0.0000   0.3151
   6.400   1.1026   0.00936   0.00420  -0.0808  0.3152  1.0000  -1.9392   0.0000   0.0000   0.0000   0.3141
   6.600   1.1224   0.00964   0.00440  -0.0805  0.2996  1.0000  -2.0234   0.0000   0.0000   0.0000   0.3123
   6.700   1.1322   0.00978   0.00451  -0.0803  0.2920  1.0000  -2.0657   0.0000   0.0000   0.0000   0.3115
   6.800   1.1419   0.00993   0.00462  -0.0802  0.2846  1.0000  -2.1080   0.0000   0.0000   0.0000   0.3106
   6.900   1.1516   0.01008   0.00473  -0.0800  0.2772  1.0000  -2.1507   0.0000   0.0000   0.0000   0.3097
   7.000   1.1614   0.01022   0.00485  -0.0798  0.2702  1.0000  -2.1937   0.0000   0.0000   0.0000   0.3089
   7.100   1.1709   0.01038   0.00497  -0.0796  0.2633  1.0000  -2.2405   0.0000   0.0000   0.0000   0.3080
   7.200   1.1804   0.01055   0.00511  -0.0794  0.2562  1.0000  -2.2898   0.0000   0.0000   0.0000   0.3072
   7.300   1.1900   0.01069   0.00523  -0.0793  0.2494  1.0000  -2.3400   0.0000   0.0000   0.0000   0.3063
   7.400   1.1994   0.01086   0.00536  -0.0791  0.2426  1.0000  -2.3898   0.0000   0.0000   0.0000   0.3055
   7.500   1.2087   0.01103   0.00549  -0.0788  0.2359  1.0000  -2.4397   0.0000   0.0000   0.0000   0.3047
   7.600   1.2182   0.01117   0.00562  -0.0787  0.2297  1.0000  -2.4906   0.0000   0.0000   0.0000   0.3039
   7.700   1.2274   0.01135   0.00575  -0.0784  0.2237  1.0000  -2.5409   0.0000   0.0000   0.0000   0.3031
   7.800   1.2367   0.01151   0.00588  -0.0782  0.2174  1.0000  -2.5920   0.0000   0.0000   0.0000   0.3023
   7.900   1.2458   0.01167   0.00602  -0.0780  0.2112  1.0000  -2.6430   0.0000   0.0000   0.0000   0.3015
   8.000   1.2546   0.01187   0.00617  -0.0777  0.2044  1.0000  -2.6934   0.0000   0.0000   0.0000   0.3007
   8.100   1.2636   0.01204   0.00631  -0.0774  0.1972  1.0000  -2.7445   0.0000   0.0000   0.0000   0.2999
   8.200   1.2724   0.01223   0.00646  -0.0772  0.1907  1.0000  -2.7956   0.0000   0.0000   0.0000   0.2991
   8.300   1.2810   0.01242   0.00662  -0.0768  0.1847  1.0000  -2.8464   0.0000   0.0000   0.0000   0.2983
   8.400   1.2899   0.01260   0.00677  -0.0766  0.1788  1.0000  -2.8983   0.0000   0.0000   0.0000   0.2976
   8.500   1.2986   0.01278   0.00692  -0.0763  0.1737  1.0000  -2.9499   0.0000   0.0000   0.0000   0.2968
   8.600   1.3070   0.01297   0.00709  -0.0759  0.1684  1.0000  -3.0013   0.0000   0.0000   0.0000   0.2960
   8.700   1.3157   0.01315   0.00724  -0.0756  0.1636  1.0000  -3.0536   0.0000   0.0000   0.0000   0.2953
   8.800   1.3240   0.01335   0.00741  -0.0753  0.1588  1.0000  -3.1048   0.0000   0.0000   0.0000   0.2945
   8.900   1.3325   0.01352   0.00757  -0.0750  0.1546  1.0000  -3.1575   0.0000   0.0000   0.0000   0.2937
   9.000   1.3406   0.01373   0.00775  -0.0746  0.1503  1.0000  -3.2089   0.0000   0.0000   0.0000   0.2930
   9.100   1.3491   0.01390   0.00793  -0.0743  0.1464  1.0000  -3.2617   0.0000   0.0000   0.0000   0.2922
   9.200   1.3571   0.01410   0.00811  -0.0739  0.1422  1.0000  -3.3138   0.0000   0.0000   0.0000   0.2915
   9.300   1.3652   0.01429   0.00828  -0.0735  0.1385  1.0000  -3.3660   0.0000   0.0000   0.0000   0.2907
   9.400   1.3731   0.01448   0.00846  -0.0731  0.1343  1.0000  -3.4181   0.0000   0.0000   0.0000   0.2899
   9.500   1.3801   0.01469   0.00865  -0.0725  0.1307  1.0000  -3.4681   0.0000   0.0000   0.0000   0.2891
   9.600   1.3873   0.01488   0.00883  -0.0720  0.1267  1.0000  -3.5186   0.0000   0.0000   0.0000   0.2883
   9.700   1.3939   0.01511   0.00904  -0.0714  0.1231  1.0000  -3.5678   0.0000   0.0000   0.0000   0.2875
   9.800   1.4010   0.01531   0.00923  -0.0709  0.1194  1.0000  -3.6187   0.0000   0.0000   0.0000   0.2867
   9.900   1.4073   0.01557   0.00946  -0.0703  0.1158  1.0000  -3.6674   0.0000   0.0000   0.0000   0.2859
  10.000   1.4143   0.01578   0.00967  -0.0697  0.1124  1.0000  -3.7185   0.0000   0.0000   0.0000   0.2851
  10.100   1.4204   0.01605   0.00992  -0.0691  0.1090  1.0000  -3.7670   0.0000   0.0000   0.0000   0.2843
  10.200   1.4273   0.01628   0.01014  -0.0686  0.1058  1.0000  -3.8180   0.0000   0.0000   0.0000   0.2835
  10.300   1.4335   0.01656   0.01040  -0.0681  0.1024  1.0000  -3.8671   0.0000   0.0000   0.0000   0.2828
  10.400   1.4399   0.01682   0.01066  -0.0675  0.0994  1.0000  -3.9171   0.0000   0.0000   0.0000   0.2820
  10.500   1.4461   0.01710   0.01092  -0.0670  0.0964  1.0000  -3.9666   0.0000   0.0000   0.0000   0.2813
  10.600   1.4520   0.01740   0.01121  -0.0664  0.0936  1.0000  -4.0156   0.0000   0.0000   0.0000   0.2805
  10.700   1.4584   0.01767   0.01148  -0.0659  0.0907  1.0000  -4.0661   0.0000   0.0000   0.0000   0.2798
  10.900   1.4705   0.01827   0.01207  -0.0649  0.0854  1.0000  -4.1655   0.0000   0.0000   0.0000   0.2784
  11.000   1.4763   0.01860   0.01239  -0.0644  0.0827  1.0000  -4.2146   0.0000   0.0000   0.0000   0.2777
  11.100   1.4823   0.01891   0.01270  -0.0638  0.0803  1.0000  -4.2644   0.0000   0.0000   0.0000   0.2770
  11.200   1.4881   0.01924   0.01302  -0.0633  0.0779  1.0000  -4.3140   0.0000   0.0000   0.0000   0.2763
  11.300   1.4934   0.01960   0.01337  -0.0628  0.0757  1.0000  -4.3622   0.0000   0.0000   0.0000   0.2756
  11.400   1.4995   0.01991   0.01369  -0.0623  0.0734  1.0000  -4.4130   0.0000   0.0000   0.0000   0.2750
  11.500   1.5048   0.02028   0.01405  -0.0618  0.0712  1.0000  -4.4612   0.0000   0.0000   0.0000   0.2743
  11.600   1.5104   0.02063   0.01440  -0.0613  0.0692  1.0000  -4.5108   0.0000   0.0000   0.0000   0.2736
  11.700   1.5159   0.02099   0.01476  -0.0608  0.0671  1.0000  -4.5601   0.0000   0.0000   0.0000   0.2730
  11.800   1.5208   0.02139   0.01515  -0.0602  0.0651  1.0000  -4.6074   0.0000   0.0000   0.0000   0.2723
  11.900   1.5265   0.02175   0.01551  -0.0598  0.0631  1.0000  -4.6576   0.0000   0.0000   0.0000   0.2717
  12.000   1.5313   0.02216   0.01592  -0.0592  0.0612  1.0000  -4.7073   0.0000   0.0000   0.0000   0.2710
  12.100   1.5365   0.02256   0.01632  -0.0588  0.0594  1.0000  -4.7596   0.0000   0.0000   0.0000   0.2704
  12.200   1.5414   0.02297   0.01673  -0.0582  0.0576  1.0000  -4.8113   0.0000   0.0000   0.0000   0.2698
  12.300   1.5456   0.02344   0.01719  -0.0577  0.0559  1.0000  -4.8605   0.0000   0.0000   0.0000   0.2691
  12.400   1.5509   0.02383   0.01759  -0.0572  0.0543  1.0000  -4.9136   0.0000   0.0000   0.0000   0.2685
  12.500   1.5552   0.02430   0.01806  -0.0567  0.0526  1.0000  -4.9636   0.0000   0.0000   0.0000   0.2679
  12.600   1.5596   0.02475   0.01852  -0.0562  0.0512  1.0000  -5.0140   0.0000   0.0000   0.0000   0.2673
  12.700   1.5643   0.02519   0.01897  -0.0557  0.0496  1.0000  -5.0656   0.0000   0.0000   0.0000   0.2666
  12.800   1.5681   0.02571   0.01948  -0.0552  0.0482  1.0000  -5.1139   0.0000   0.0000   0.0000   0.2660
  12.900   1.5726   0.02617   0.01996  -0.0547  0.0468  1.0000  -5.1648   0.0000   0.0000   0.0000   0.2654
  13.000   1.5767   0.02667   0.02047  -0.0542  0.0455  1.0000  -5.2145   0.0000   0.0000   0.0000   0.2648
  13.100   1.5800   0.02723   0.02103  -0.0536  0.0443  1.0000  -5.2613   0.0000   0.0000   0.0000   0.2642
  13.200   1.5844   0.02771   0.02152  -0.0532  0.0431  1.0000  -5.3120   0.0000   0.0000   0.0000   0.2636
  13.300   1.5882   0.02824   0.02206  -0.0527  0.0420  1.0000  -5.3608   0.0000   0.0000   0.0000   0.2630
  13.400   1.5912   0.02884   0.02266  -0.0522  0.0410  1.0000  -5.4067   0.0000   0.0000   0.0000   0.2625
  13.500   1.5950   0.02937   0.02321  -0.0517  0.0400  1.0000  -5.4556   0.0000   0.0000   0.0000   0.2619
  13.600   1.5986   0.02992   0.02377  -0.0512  0.0390  1.0000  -5.5041   0.0000   0.0000   0.0000   0.2613
  13.700   1.6015   0.03054   0.02440  -0.0507  0.0381  1.0000  -5.5497   0.0000   0.0000   0.0000   0.2607
  13.800   1.6040   0.03119   0.02505  -0.0502  0.0374  1.0000  -5.5940   0.0000   0.0000   0.0000   0.2602
  13.900   1.6076   0.03176   0.02564  -0.0498  0.0366  1.0000  -5.6424   0.0000   0.0000   0.0000   0.2596
  14.000   1.6106   0.03238   0.02629  -0.0493  0.0358  1.0000  -5.6883   0.0000   0.0000   0.0000   0.2591
  14.100   1.6128   0.03307   0.02698  -0.0488  0.0351  1.0000  -5.7318   0.0000   0.0000   0.0000   0.2585
  14.200   1.6142   0.03384   0.02776  -0.0483  0.0345  1.0000  -5.7718   0.0000   0.0000   0.0000   0.2580
  14.300   1.6179   0.03441   0.02836  -0.0479  0.0339  1.0000  -5.8242   0.0000   0.0000   0.0000   0.2574
  14.400   1.6207   0.03507   0.02904  -0.0475  0.0332  1.0000  -5.8735   0.0000   0.0000   0.0000   0.2569
  14.500   1.6230   0.03578   0.02977  -0.0471  0.0326  1.0000  -5.9207   0.0000   0.0000   0.0000   0.2564
  14.600   1.6245   0.03656   0.03056  -0.0466  0.0321  1.0000  -5.9649   0.0000   0.0000   0.0000   0.2559
  14.700   1.6254   0.03740   0.03141  -0.0461  0.0317  1.0000  -6.0061   0.0000   0.0000   0.0000   0.2554
  14.800   1.6283   0.03807   0.03211  -0.0458  0.0312  1.0000  -6.0559   0.0000   0.0000   0.0000   0.2549
  14.900   1.6308   0.03878   0.03286  -0.0454  0.0307  1.0000  -6.1039   0.0000   0.0000   0.0000   0.2544
  15.000   1.6326   0.03957   0.03367  -0.0451  0.0303  1.0000  -6.1496   0.0000   0.0000   0.0000   0.2539
  15.100   1.6342   0.04040   0.03452  -0.0447  0.0299  1.0000  -6.1939   0.0000   0.0000   0.0000   0.2535
  15.200   1.6350   0.04130   0.03544  -0.0443  0.0295  1.0000  -6.2352   0.0000   0.0000   0.0000   0.2530
  15.300   1.6351   0.04229   0.03644  -0.0440  0.0292  1.0000  -6.2745   0.0000   0.0000   0.0000   0.2526
  15.400   1.6370   0.04312   0.03731  -0.0437  0.0288  1.0000  -6.3374   0.0000   0.0000   0.0000   0.2522
  15.500   1.6392   0.04392   0.03814  -0.0435  0.0284  1.0000  -6.4030   0.0000   0.0000   0.0000   0.2517
  15.600   1.6410   0.04479   0.03903  -0.0432  0.0281  1.0000  -6.4659   0.0000   0.0000   0.0000   0.2513
  15.700   1.6424   0.04569   0.03996  -0.0430  0.0277  1.0000  -6.5271   0.0000   0.0000   0.0000   0.2509
  15.800   1.6432   0.04666   0.04096  -0.0427  0.0274  1.0000  -6.5853   0.0000   0.0000   0.0000   0.2506
  15.900   1.6437   0.04768   0.04200  -0.0425  0.0272  1.0000  -6.6413   0.0000   0.0000   0.0000   0.2502
  16.000   1.6435   0.04879   0.04313  -0.0423  0.0269  1.0000  -6.6935   0.0000   0.0000   0.0000   0.2498
  16.100   1.6426   0.04999   0.04436  -0.0421  0.0267  1.0000  -6.7409   0.0000   0.0000   0.0000   0.2495
  16.200   1.6431   0.05105   0.04545  -0.0420  0.0264  1.0000  -6.7969   0.0000   0.0000   0.0000   0.2492
  16.300   1.6442   0.05206   0.04649  -0.0418  0.0262  1.0000  -6.8564   0.0000   0.0000   0.0000   0.2488
  16.400   1.6449   0.05310   0.04757  -0.0417  0.0259  1.0000  -6.9141   0.0000   0.0000   0.0000   0.2485
  16.500   1.6453   0.05420   0.04870  -0.0416  0.0257  1.0000  -6.9699   0.0000   0.0000   0.0000   0.2482
  16.600   1.6455   0.05533   0.04986  -0.0415  0.0255  1.0000  -7.0250   0.0000   0.0000   0.0000   0.2479
  16.700   1.6453   0.05652   0.05108  -0.0415  0.0252  1.0000  -7.0773   0.0000   0.0000   0.0000   0.2477
  16.800   1.6448   0.05776   0.05234  -0.0414  0.0250  1.0000  -7.1278   0.0000   0.0000   0.0000   0.2474
  16.900   1.6438   0.05907   0.05368  -0.0414  0.0249  1.0000  -7.1750   0.0000   0.0000   0.0000   0.2472
  17.000   1.6422   0.06046   0.05510  -0.0414  0.0247  1.0000  -7.2183   0.0000   0.0000   0.0000   0.2470
  17.100   1.6399   0.06195   0.05662  -0.0415  0.0245  1.0000  -7.2570   0.0000   0.0000   0.0000   0.2468
  17.200   1.6366   0.06358   0.05828  -0.0416  0.0243  1.0000  -7.2890   0.0000   0.0000   0.0000   0.2466
  17.300   1.6358   0.06491   0.05965  -0.0416  0.0242  1.0000  -7.3371   0.0000   0.0000   0.0000   0.2464
  17.400   1.6358   0.06615   0.06094  -0.0417  0.0240  1.0000  -7.3901   0.0000   0.0000   0.0000   0.2462
  17.500   1.6352   0.06748   0.06231  -0.0418  0.0238  1.0000  -7.4392   0.0000   0.0000   0.0000   0.2461
  17.600   1.6343   0.06885   0.06371  -0.0419  0.0236  1.0000  -7.4868   0.0000   0.0000   0.0000   0.2459
  17.700   1.6330   0.07027   0.06517  -0.0421  0.0234  1.0000  -7.5318   0.0000   0.0000   0.0000   0.2458
  17.800   1.6316   0.07174   0.06667  -0.0422  0.0232  1.0000  -7.5753   0.0000   0.0000   0.0000   0.2457
  17.900   1.6299   0.07323   0.06820  -0.0424  0.0231  1.0000  -7.6177   0.0000   0.0000   0.0000   0.2456
  18.000   1.6279   0.07479   0.06980  -0.0427  0.0229  1.0000  -7.6573   0.0000   0.0000   0.0000   0.2455
  18.100   1.6256   0.07641   0.07144  -0.0429  0.0228  1.0000  -7.6947   0.0000   0.0000   0.0000   0.2454
  18.200   1.6228   0.07809   0.07315  -0.0432  0.0227  1.0000  -7.7286   0.0000   0.0000   0.0000   0.2454
  18.300   1.6194   0.07986   0.07496  -0.0435  0.0225  1.0000  -7.7583   0.0000   0.0000   0.0000   0.2454
  18.400   1.6156   0.08170   0.07683  -0.0439  0.0224  1.0000  -7.7848   0.0000   0.0000   0.0000   0.2454
  18.500   1.6113   0.08363   0.07880  -0.0443  0.0223  1.0000  -7.8071   0.0000   0.0000   0.0000   0.2455
  18.600   1.6064   0.08567   0.08087  -0.0448  0.0222  1.0000  -7.8244   0.0000   0.0000   0.0000   0.2456
  18.800   1.5986   0.08949   0.08477  -0.0457  0.0220  1.0000  -7.8719   0.0000   0.0000   0.0000   0.2458
  18.900   1.5962   0.09119   0.08652  -0.0461  0.0219  1.0000  -7.9059   0.0000   0.0000   0.0000   0.2459
  19.000   1.5934   0.09295   0.08832  -0.0466  0.0218  1.0000  -7.9372   0.0000   0.0000   0.0000   0.2459
  19.100   1.5905   0.09474   0.09015  -0.0471  0.0217  1.0000  -7.9673   0.0000   0.0000   0.0000   0.2460
  19.200   1.5873   0.09660   0.09205  -0.0476  0.0216  1.0000  -7.9939   0.0000   0.0000   0.0000   0.2462
  19.300   1.5840   0.09846   0.09396  -0.0481  0.0215  1.0000  -8.0204   0.0000   0.0000   0.0000   0.2463
  19.400   1.5806   0.10036   0.09590  -0.0487  0.0214  1.0000  -8.0454   0.0000   0.0000   0.0000   0.2465
  19.500   1.5770   0.10229   0.09787  -0.0493  0.0213  1.0000  -8.0682   0.0000   0.0000   0.0000   0.2467
  19.600   1.5735   0.10421   0.09983  -0.0500  0.0212  1.0000  -8.0915   0.0000   0.0000   0.0000   0.2469
  19.700   1.5698   0.10619   0.10184  -0.0506  0.0211  1.0000  -8.1127   0.0000   0.0000   0.0000   0.2472
  19.800   1.5661   0.10815   0.10383  -0.0513  0.0211  1.0000  -8.1339   0.0000   0.0000   0.0000   0.2474
  19.900   1.5626   0.11011   0.10583  -0.0521  0.0210  1.0000  -8.1553   0.0000   0.0000   0.0000   0.2477
  20.000   1.5589   0.11211   0.10787  -0.0528  0.0209  1.0000  -8.1745   0.0000   0.0000   0.0000   0.2480


