xflr5 v6.57

 Calculated polar for: QX0123

 1 1 Reynolds number fixed          Mach number fixed         

 xtrf =   1.000 (top)        1.000 (bottom)
 Mach =   0.000     Re =     0.240 e 6     Ncrit =   9.000

  alpha     CL        CD       CDp       Cm    Top Xtr Bot Xtr   Cpmin    Chinge    XCp    
 ------- -------- --------- --------- -------- ------- ------- -------- --------- ---------
  -9.800  -0.5108   0.04758   0.04366  -0.0968  0.9681  0.0398  -4.2327   0.0000   0.0000   0.0000   0.0460
  -9.700  -0.5128   0.04515   0.04100  -0.0987  0.9643  0.0396  -4.2879   0.0000   0.0000   0.0000   0.0432
  -9.600  -0.5145   0.04308   0.03875  -0.0995  0.9598  0.0396  -4.3236   0.0000   0.0000   0.0000   0.0423
  -9.500  -0.5153   0.04075   0.03620  -0.1004  0.9567  0.0396  -4.3612   0.0000   0.0000   0.0000   0.0410
  -9.400  -0.5170   0.03859   0.03384  -0.1007  0.9526  0.0397  -4.3943   0.0000   0.0000   0.0000   0.0413
  -9.300  -0.5162   0.03660   0.03167  -0.1009  0.9493  0.0400  -4.4081   0.0000   0.0000   0.0000   0.0406
  -9.200  -0.5121   0.03515   0.03011  -0.1010  0.9471  0.0403  -4.3867   0.0000   0.0000   0.0000   0.0388
  -9.100  -0.5068   0.03426   0.02917  -0.1009  0.9440  0.0406  -4.3424   0.0000   0.0000   0.0000   0.0370
  -9.000  -0.5000   0.03358   0.02844  -0.1008  0.9413  0.0410  -4.2863   0.0000   0.0000   0.0000   0.0345
  -8.900  -0.4927   0.03295   0.02775  -0.1007  0.9391  0.0414  -4.2283   0.0000   0.0000   0.0000   0.0318
  -8.800  -0.4844   0.03251   0.02728  -0.1006  0.9373  0.0418  -4.1598   0.0000   0.0000   0.0000   0.0285
  -8.700  -0.4774   0.03194   0.02665  -0.1004  0.9346  0.0423  -4.1042   0.0000   0.0000   0.0000   0.0258
  -8.600  -0.4705   0.03126   0.02588  -0.1003  0.9320  0.0427  -4.0547   0.0000   0.0000   0.0000   0.0231
  -8.500  -0.4636   0.03051   0.02502  -0.1001  0.9298  0.0431  -4.0091   0.0000   0.0000   0.0000   0.0204
  -8.400  -0.4567   0.02974   0.02412  -0.0998  0.9279  0.0435  -3.9651   0.0000   0.0000   0.0000   0.0177
  -8.300  -0.4497   0.02897   0.02323  -0.0996  0.9256  0.0439  -3.9217   0.0000   0.0000   0.0000   0.0148
  -8.200  -0.4424   0.02823   0.02235  -0.0993  0.9230  0.0443  -3.8776   0.0000   0.0000   0.0000   0.0116
  -8.100  -0.4350   0.02750   0.02148  -0.0991  0.9207  0.0447  -3.8317   0.0000   0.0000   0.0000   0.0084
  -8.000  -0.4272   0.02681   0.02065  -0.0988  0.9188  0.0450  -3.7839   0.0000   0.0000   0.0000   0.0049
  -7.900  -0.4192   0.02617   0.01987  -0.0984  0.9172  0.0454  -3.7339   0.0000   0.0000   0.0000   0.0012
  -7.800  -0.4108   0.02557   0.01914  -0.0982  0.9149  0.0457  -3.6963   0.0000   0.0000   0.0000  -0.0031
  -7.700  -0.4022   0.02502   0.01846  -0.0980  0.9125  0.0461  -3.6577   0.0000   0.0000   0.0000  -0.0078
  -7.600  -0.3934   0.02451   0.01782  -0.0977  0.9104  0.0464  -3.6170   0.0000   0.0000   0.0000  -0.0125
  -7.500  -0.3845   0.02404   0.01723  -0.0974  0.9086  0.0467  -3.5741   0.0000   0.0000   0.0000  -0.0175
  -7.400  -0.3754   0.02364   0.01671  -0.0970  0.9070  0.0470  -3.5286   0.0000   0.0000   0.0000  -0.0228
  -7.300  -0.3659   0.02340   0.01636  -0.0968  0.9050  0.0474  -3.4777   0.0000   0.0000   0.0000  -0.0290
  -7.200  -0.3575   0.02247   0.01540  -0.0967  0.9026  0.0482  -3.4370   0.0000   0.0000   0.0000  -0.0350
  -7.100  -0.3481   0.02208   0.01503  -0.0965  0.9006  0.0490  -3.3765   0.0000   0.0000   0.0000  -0.0420
  -7.000  -0.3385   0.02183   0.01479  -0.0963  0.8987  0.0497  -3.3138   0.0000   0.0000   0.0000  -0.0494
  -6.900  -0.3288   0.02160   0.01453  -0.0961  0.8972  0.0505  -3.2535   0.0000   0.0000   0.0000  -0.0570
  -6.800  -0.3192   0.02134   0.01422  -0.0958  0.8958  0.0513  -3.1971   0.0000   0.0000   0.0000  -0.0650
  -6.700  -0.3091   0.02106   0.01390  -0.0957  0.8934  0.0521  -3.1430   0.0000   0.0000   0.0000  -0.0748
  -6.600  -0.2991   0.02074   0.01352  -0.0955  0.8912  0.0529  -3.0925   0.0000   0.0000   0.0000  -0.0848
  -6.500  -0.2892   0.02039   0.01310  -0.0953  0.8893  0.0536  -3.0446   0.0000   0.0000   0.0000  -0.0951
  -6.400  -0.2793   0.02006   0.01269  -0.0950  0.8875  0.0543  -2.9972   0.0000   0.0000   0.0000  -0.1060
  -6.300  -0.2693   0.01979   0.01232  -0.0946  0.8861  0.0551  -2.9493   0.0000   0.0000   0.0000  -0.1175
  -6.200  -0.2598   0.01932   0.01181  -0.0943  0.8846  0.0560  -2.9046   0.0000   0.0000   0.0000  -0.1295
  -6.100  -0.2500   0.01891   0.01145  -0.0943  0.8821  0.0572  -2.8517   0.0000   0.0000   0.0000  -0.1439
  -6.000  -0.2399   0.01867   0.01123  -0.0941  0.8799  0.0584  -2.7950   0.0000   0.0000   0.0000  -0.1594
  -5.900  -0.2298   0.01845   0.01100  -0.0939  0.8780  0.0597  -2.7398   0.0000   0.0000   0.0000  -0.1760
  -5.800  -0.2197   0.01823   0.01074  -0.0936  0.8763  0.0614  -2.6871   0.0000   0.0000   0.0000  -0.1940
  -5.700  -0.2095   0.01803   0.01046  -0.0933  0.8749  0.0630  -2.6360   0.0000   0.0000   0.0000  -0.2138
  -5.600  -0.1997   0.01769   0.01012  -0.0931  0.8734  0.0647  -2.5858   0.0000   0.0000   0.0000  -0.2348
  -5.500  -0.1895   0.01749   0.00996  -0.0930  0.8709  0.0663  -2.5282   0.0000   0.0000   0.0000  -0.2605
  -5.400  -0.1791   0.01733   0.00981  -0.0929  0.8688  0.0683  -2.4712   0.0000   0.0000   0.0000  -0.2888
  -5.300  -0.1687   0.01717   0.00961  -0.0927  0.8670  0.0705  -2.4169   0.0000   0.0000   0.0000  -0.3204
  -5.200  -0.1585   0.01696   0.00936  -0.0925  0.8654  0.0725  -2.3648   0.0000   0.0000   0.0000  -0.3549
  -5.100  -0.1485   0.01675   0.00919  -0.0922  0.8640  0.0745  -2.3208   0.0000   0.0000   0.0000  -0.3934
  -5.000  -0.1382   0.01661   0.00905  -0.0920  0.8626  0.0768  -2.2773   0.0000   0.0000   0.0000  -0.4394
  -4.900  -0.1274   0.01652   0.00892  -0.0920  0.8600  0.0794  -2.2363   0.0000   0.0000   0.0000  -0.4970
  -4.800  -0.1173   0.01631   0.00874  -0.0919  0.8577  0.0817  -2.1940   0.0000   0.0000   0.0000  -0.5600
  -4.700  -0.1069   0.01617   0.00861  -0.0917  0.8558  0.0842  -2.1492   0.0000   0.0000   0.0000  -0.6361
  -4.600  -0.0963   0.01604   0.00844  -0.0914  0.8542  0.0874  -2.1068   0.0000   0.0000   0.0000  -0.7299
  -4.500  -0.0862   0.01584   0.00825  -0.0912  0.8527  0.0903  -2.0636   0.0000   0.0000   0.0000  -0.8408
  -4.400  -0.0758   0.01571   0.00814  -0.0910  0.8511  0.0941  -2.0186   0.0000   0.0000   0.0000  -0.9875
  -4.300  -0.0653   0.01558   0.00802  -0.0910  0.8483  0.0982  -1.9752   0.0000   0.0000   0.0000  -1.1845
  -4.200  -0.0548   0.01546   0.00792  -0.0909  0.8461  0.1028  -1.9299   0.0000   0.0000   0.0000  -1.4560
  -4.100  -0.0444   0.01530   0.00779  -0.0907  0.8443  0.1076  -1.8854   0.0000   0.0000   0.0000  -1.8514
  -4.000  -0.0337   0.01520   0.00767  -0.0906  0.8428  0.1135  -1.8404   0.0000   0.0000   0.0000  -2.5104
  -3.900  -0.0232   0.01507   0.00757  -0.0904  0.8414  0.1194  -1.7946   0.0000   0.0000   0.0000  -3.7507
  -3.800  -0.0126   0.01495   0.00748  -0.0903  0.8398  0.1257  -1.7500   0.0000   0.0000   0.0000  -7.0725
  -3.700  -0.0021   0.01484   0.00740  -0.0903  0.8370  0.1325  -1.7065   0.0000   0.0000   0.0000  -44.1845
  -3.600   0.0085   0.01470   0.00729  -0.0901  0.8348  0.1396  -1.6631   0.0000   0.0000   0.0000  11.1613
  -3.500   0.0191   0.01456   0.00716  -0.0900  0.8329  0.1471  -1.6194   0.0000   0.0000   0.0000   5.0868
  -3.400   0.0297   0.01441   0.00704  -0.0898  0.8314  0.1550  -1.5754   0.0000   0.0000   0.0000   3.3487
  -3.300   0.0403   0.01426   0.00692  -0.0896  0.8300  0.1633  -1.5312   0.0000   0.0000   0.0000   2.5243
  -3.200   0.0509   0.01416   0.00686  -0.0895  0.8280  0.1723  -1.4872   0.0000   0.0000   0.0000   2.0463
  -3.100   0.0616   0.01407   0.00683  -0.0895  0.8253  0.1819  -1.4435   0.0000   0.0000   0.0000   1.7350
  -3.000   0.0722   0.01396   0.00675  -0.0895  0.8231  0.1925  -1.3997   0.0000   0.0000   0.0000   1.5132
  -2.900   0.0830   0.01383   0.00666  -0.0893  0.8213  0.2046  -1.3559   0.0000   0.0000   0.0000   1.3470
  -2.800   0.0937   0.01369   0.00657  -0.0892  0.8198  0.2173  -1.3122   0.0000   0.0000   0.0000   1.2196
  -2.700   0.1044   0.01355   0.00647  -0.0890  0.8184  0.2318  -1.2686   0.0000   0.0000   0.0000   1.1176
  -2.600   0.1150   0.01346   0.00645  -0.0890  0.8157  0.2479  -1.2259   0.0000   0.0000   0.0000   1.0370
  -2.500   0.1256   0.01335   0.00642  -0.0889  0.8131  0.2650  -1.1834   0.0000   0.0000   0.0000   0.9698
  -2.400   0.1362   0.01322   0.00636  -0.0888  0.8110  0.2837  -1.1409   0.0000   0.0000   0.0000   0.9123
  -2.300   0.1469   0.01307   0.00628  -0.0887  0.8092  0.3049  -1.0985   0.0000   0.0000   0.0000   0.8627
  -2.200   0.1576   0.01291   0.00619  -0.0885  0.8077  0.3288  -1.0564   0.0000   0.0000   0.0000   0.8197
  -2.100   0.1681   0.01276   0.00613  -0.0884  0.8060  0.3547  -1.0148   0.0000   0.0000   0.0000   0.7826
  -2.000   0.1783   0.01265   0.00615  -0.0883  0.8028  0.3829  -0.9746   0.0000   0.0000   0.0000   0.7515
  -1.900   0.1887   0.01249   0.00611  -0.0882  0.8004  0.4149  -0.9342   0.0000   0.0000   0.0000   0.7229
  -1.800   0.1990   0.01231   0.00606  -0.0880  0.7985  0.4507  -0.8940   0.0000   0.0000   0.0000   0.6970
  -1.700   0.2092   0.01212   0.00601  -0.0877  0.7969  0.4900  -0.8542   0.0000   0.0000   0.0000   0.6734
  -1.600   0.2194   0.01194   0.00596  -0.0874  0.7956  0.5314  -0.8147   0.0000   0.0000   0.0000   0.6518
  -1.500   0.2292   0.01185   0.00602  -0.0871  0.7924  0.5714  -0.7767   0.0000   0.0000   0.0000   0.6334
  -1.400   0.2389   0.01173   0.00605  -0.0868  0.7898  0.6088  -0.7483   0.0000   0.0000   0.0000   0.6159
  -1.300   0.2487   0.01161   0.00604  -0.0863  0.7878  0.6458  -0.7213   0.0000   0.0000   0.0000   0.5993
  -1.200   0.2586   0.01149   0.00602  -0.0858  0.7861  0.6798  -0.6944   0.0000   0.0000   0.0000   0.5837
  -1.100   0.2686   0.01139   0.00598  -0.0852  0.7846  0.7090  -0.6675   0.0000   0.0000   0.0000   0.5690
  -1.000   0.2780   0.01135   0.00603  -0.0847  0.7817  0.7342  -0.6415   0.0000   0.0000   0.0000   0.5561
  -0.900   0.2877   0.01131   0.00605  -0.0842  0.7788  0.7571  -0.6364   0.0000   0.0000   0.0000   0.5439
  -0.800   0.2974   0.01124   0.00602  -0.0837  0.7765  0.7778  -0.6437   0.0000   0.0000   0.0000   0.5321
  -0.700   0.3071   0.01116   0.00597  -0.0830  0.7747  0.7972  -0.6513   0.0000   0.0000   0.0000   0.5209
  -0.600   0.3169   0.01109   0.00591  -0.0824  0.7732  0.8155  -0.6597   0.0000   0.0000   0.0000   0.5102
  -0.500   0.3260   0.01108   0.00595  -0.0818  0.7698  0.8325  -0.6673   0.0000   0.0000   0.0000   0.5009
  -0.400   0.3352   0.01105   0.00595  -0.0812  0.7670  0.8491  -0.6752   0.0000   0.0000   0.0000   0.4919
  -0.300   0.3446   0.01099   0.00591  -0.0805  0.7648  0.8649  -0.6833   0.0000   0.0000   0.0000   0.4830
  -0.200   0.3543   0.01093   0.00584  -0.0798  0.7631  0.8807  -0.6917   0.0000   0.0000   0.0000   0.4745
  -0.100   0.3643   0.01087   0.00577  -0.0792  0.7614  0.8962  -0.7009   0.0000   0.0000   0.0000   0.4664
   0.000   0.3741   0.01088   0.00582  -0.0787  0.7576  0.9118  -0.7102   0.0000   0.0000   0.0000   0.4593
   0.100   0.3858   0.01084   0.00577  -0.0785  0.7550  0.9271  -0.7211   0.0000   0.0000   0.0000   0.4523
   0.200   0.3997   0.01077   0.00569  -0.0788  0.7529  0.9418  -0.7333   0.0000   0.0000   0.0000   0.4456
   0.300   0.4155   0.01071   0.00559  -0.0794  0.7512  0.9553  -0.7468   0.0000   0.0000   0.0000   0.4395
   0.400   0.4328   0.01069   0.00557  -0.0806  0.7482  0.9673  -0.7608   0.0000   0.0000   0.0000   0.4344
   0.500   0.4512   0.01067   0.00552  -0.0820  0.7451  0.9782  -0.7756   0.0000   0.0000   0.0000   0.4298
   0.600   0.4709   0.01061   0.00543  -0.0836  0.7427  0.9876  -0.7913   0.0000   0.0000   0.0000   0.4255
   0.700   0.4915   0.01054   0.00532  -0.0855  0.7408  0.9956  -0.8077   0.0000   0.0000   0.0000   0.4216
   0.800   0.5086   0.01051   0.00526  -0.0867  0.7380  1.0000  -0.8219   0.0000   0.0000   0.0000   0.4181
   0.900   0.5175   0.01051   0.00525  -0.0864  0.7343  1.0000  -0.8310   0.0000   0.0000   0.0000   0.4144
   1.000   0.5272   0.01048   0.00518  -0.0861  0.7314  1.0000  -0.8416   0.0000   0.0000   0.0000   0.4106
   1.100   0.5374   0.01044   0.00509  -0.0858  0.7292  1.0000  -0.8525   0.0000   0.0000   0.0000   0.4069
   1.200   0.5467   0.01046   0.00510  -0.0856  0.7252  1.0000  -0.8627   0.0000   0.0000   0.0000   0.4036
   1.300   0.5567   0.01045   0.00506  -0.0853  0.7218  1.0000  -0.8734   0.0000   0.0000   0.0000   0.4002
   1.400   0.5673   0.01041   0.00498  -0.0852  0.7192  1.0000  -0.8846   0.0000   0.0000   0.0000   0.3969
   1.500   0.5776   0.01041   0.00495  -0.0850  0.7159  1.0000  -0.8956   0.0000   0.0000   0.0000   0.3938
   1.600   0.5877   0.01042   0.00495  -0.0848  0.7119  1.0000  -0.9085   0.0000   0.0000   0.0000   0.3908
   1.700   0.5985   0.01039   0.00488  -0.0846  0.7088  1.0000  -0.9221   0.0000   0.0000   0.0000   0.3878
   1.800   0.6093   0.01038   0.00483  -0.0845  0.7057  1.0000  -0.9358   0.0000   0.0000   0.0000   0.3850
   1.900   0.6195   0.01040   0.00485  -0.0843  0.7013  1.0000  -0.9489   0.0000   0.0000   0.0000   0.3823
   2.000   0.6304   0.01038   0.00479  -0.0842  0.6981  1.0000  -0.9631   0.0000   0.0000   0.0000   0.3796
   2.100   0.6413   0.01038   0.00476  -0.0841  0.6949  1.0000  -0.9775   0.0000   0.0000   0.0000   0.3771
   2.200   0.6517   0.01040   0.00479  -0.0839  0.6905  1.0000  -0.9913   0.0000   0.0000   0.0000   0.3746
   2.300   0.6627   0.01040   0.00475  -0.0838  0.6873  1.0000  -1.0060   0.0000   0.0000   0.0000   0.3722
   2.400   0.6737   0.01040   0.00472  -0.0837  0.6839  1.0000  -1.0210   0.0000   0.0000   0.0000   0.3699
   2.500   0.6842   0.01043   0.00475  -0.0836  0.6796  1.0000  -1.0356   0.0000   0.0000   0.0000   0.3677
   2.600   0.6953   0.01043   0.00472  -0.0835  0.6762  1.0000  -1.0508   0.0000   0.0000   0.0000   0.3655
   2.700   0.7061   0.01045   0.00472  -0.0834  0.6723  1.0000  -1.0657   0.0000   0.0000   0.0000   0.3634
   2.800   0.7168   0.01047   0.00473  -0.0833  0.6678  1.0000  -1.0806   0.0000   0.0000   0.0000   0.3614
   2.900   0.7279   0.01048   0.00469  -0.0832  0.6644  1.0000  -1.0962   0.0000   0.0000   0.0000   0.3594
   3.000   0.7384   0.01051   0.00473  -0.0831  0.6595  1.0000  -1.1121   0.0000   0.0000   0.0000   0.3575
   3.100   0.7493   0.01053   0.00472  -0.0830  0.6552  1.0000  -1.1285   0.0000   0.0000   0.0000   0.3556
   3.200   0.7602   0.01055   0.00471  -0.0829  0.6508  1.0000  -1.1449   0.0000   0.0000   0.0000   0.3538
   3.300   0.7708   0.01058   0.00473  -0.0827  0.6457  1.0000  -1.1611   0.0000   0.0000   0.0000   0.3520
   3.500   0.7922   0.01063   0.00477  -0.0825  0.6358  1.0000  -1.1963   0.0000   0.0000   0.0000   0.3485
   3.600   0.8032   0.01065   0.00474  -0.0824  0.6314  1.0000  -1.2151   0.0000   0.0000   0.0000   0.3468
   3.700   0.8135   0.01070   0.00479  -0.0822  0.6254  1.0000  -1.2332   0.0000   0.0000   0.0000   0.3452
   3.800   0.8244   0.01073   0.00477  -0.0821  0.6209  1.0000  -1.2520   0.0000   0.0000   0.0000   0.3436
   3.900   0.8348   0.01078   0.00483  -0.0820  0.6150  1.0000  -1.2702   0.0000   0.0000   0.0000   0.3421
   4.000   0.8456   0.01082   0.00483  -0.0818  0.6103  1.0000  -1.2890   0.0000   0.0000   0.0000   0.3406
   4.100   0.8561   0.01088   0.00489  -0.0817  0.6045  1.0000  -1.3075   0.0000   0.0000   0.0000   0.3392
   4.200   0.8668   0.01093   0.00490  -0.0816  0.5997  1.0000  -1.3285   0.0000   0.0000   0.0000   0.3377
   4.300   0.8773   0.01099   0.00496  -0.0814  0.5939  1.0000  -1.3498   0.0000   0.0000   0.0000   0.3363
   4.400   0.8879   0.01105   0.00498  -0.0813  0.5889  1.0000  -1.3716   0.0000   0.0000   0.0000   0.3350
   4.500   0.8983   0.01111   0.00504  -0.0812  0.5828  1.0000  -1.3931   0.0000   0.0000   0.0000   0.3336
   4.600   0.9088   0.01118   0.00506  -0.0810  0.5776  1.0000  -1.4150   0.0000   0.0000   0.0000   0.3323
   4.700   0.9191   0.01125   0.00514  -0.0809  0.5713  1.0000  -1.4369   0.0000   0.0000   0.0000   0.3310
   4.800   0.9296   0.01133   0.00517  -0.0807  0.5660  1.0000  -1.4613   0.0000   0.0000   0.0000   0.3297
   4.900   0.9398   0.01141   0.00525  -0.0806  0.5594  1.0000  -1.4853   0.0000   0.0000   0.0000   0.3285
   5.000   0.9501   0.01149   0.00530  -0.0804  0.5537  1.0000  -1.5096   0.0000   0.0000   0.0000   0.3273
   5.100   0.9603   0.01158   0.00536  -0.0802  0.5472  1.0000  -1.5338   0.0000   0.0000   0.0000   0.3261
   5.200   0.9704   0.01167   0.00543  -0.0800  0.5409  1.0000  -1.5581   0.0000   0.0000   0.0000   0.3249
   5.300   0.9805   0.01176   0.00554  -0.0798  0.5347  1.0000  -1.5825   0.0000   0.0000   0.0000   0.3237
   5.400   0.9904   0.01186   0.00563  -0.0796  0.5276  1.0000  -1.6081   0.0000   0.0000   0.0000   0.3226
   5.500   1.0004   0.01196   0.00570  -0.0794  0.5212  1.0000  -1.6342   0.0000   0.0000   0.0000   0.3215
   5.600   1.0102   0.01207   0.00578  -0.0792  0.5141  1.0000  -1.6602   0.0000   0.0000   0.0000   0.3203
   5.700   1.0201   0.01217   0.00587  -0.0790  0.5072  1.0000  -1.6863   0.0000   0.0000   0.0000   0.3193
   5.800   1.0298   0.01230   0.00595  -0.0787  0.5007  1.0000  -1.7125   0.0000   0.0000   0.0000   0.3182
   5.900   1.0395   0.01241   0.00605  -0.0785  0.4933  1.0000  -1.7405   0.0000   0.0000   0.0000   0.3171
   6.000   1.0492   0.01253   0.00615  -0.0783  0.4863  1.0000  -1.7714   0.0000   0.0000   0.0000   0.3161
   6.100   1.0587   0.01266   0.00624  -0.0780  0.4796  1.0000  -1.8023   0.0000   0.0000   0.0000   0.3150
   6.200   1.0682   0.01278   0.00636  -0.0778  0.4721  1.0000  -1.8332   0.0000   0.0000   0.0000   0.3140
   6.300   1.0776   0.01292   0.00647  -0.0775  0.4650  1.0000  -1.8641   0.0000   0.0000   0.0000   0.3130
   6.400   1.0868   0.01306   0.00657  -0.0772  0.4579  1.0000  -1.8949   0.0000   0.0000   0.0000   0.3120
   6.500   1.0961   0.01320   0.00670  -0.0769  0.4501  1.0000  -1.9267   0.0000   0.0000   0.0000   0.3110
   6.600   1.1052   0.01334   0.00682  -0.0766  0.4426  1.0000  -1.9601   0.0000   0.0000   0.0000   0.3100
   6.700   1.1142   0.01351   0.00694  -0.0763  0.4355  1.0000  -2.0002   0.0000   0.0000   0.0000   0.3090
   6.800   1.1232   0.01365   0.00708  -0.0760  0.4276  1.0000  -2.0407   0.0000   0.0000   0.0000   0.3081
   6.900   1.1321   0.01381   0.00722  -0.0757  0.4199  1.0000  -2.0811   0.0000   0.0000   0.0000   0.3071
   7.000   1.1408   0.01399   0.00736  -0.0753  0.4126  1.0000  -2.1214   0.0000   0.0000   0.0000   0.3062
   7.100   1.1494   0.01416   0.00750  -0.0750  0.4047  1.0000  -2.1617   0.0000   0.0000   0.0000   0.3052
   7.200   1.1580   0.01433   0.00766  -0.0746  0.3967  1.0000  -2.2022   0.0000   0.0000   0.0000   0.3043
   7.300   1.1664   0.01452   0.00786  -0.0742  0.3890  1.0000  -2.2425   0.0000   0.0000   0.0000   0.3034
   7.400   1.1745   0.01473   0.00802  -0.0738  0.3815  1.0000  -2.2825   0.0000   0.0000   0.0000   0.3024
   7.500   1.1828   0.01491   0.00820  -0.0734  0.3734  1.0000  -2.3285   0.0000   0.0000   0.0000   0.3015
   7.600   1.1910   0.01510   0.00837  -0.0730  0.3657  1.0000  -2.3748   0.0000   0.0000   0.0000   0.3006
   7.700   1.1989   0.01531   0.00855  -0.0725  0.3583  1.0000  -2.4206   0.0000   0.0000   0.0000   0.2997
   7.800   1.2066   0.01553   0.00873  -0.0721  0.3507  1.0000  -2.4665   0.0000   0.0000   0.0000   0.2988
   7.900   1.2145   0.01573   0.00892  -0.0716  0.3430  1.0000  -2.5127   0.0000   0.0000   0.0000   0.2979
   8.000   1.2220   0.01596   0.00912  -0.0712  0.3356  1.0000  -2.5584   0.0000   0.0000   0.0000   0.2970
   8.200   1.2366   0.01643   0.00953  -0.0701  0.3205  1.0000  -2.6494   0.0000   0.0000   0.0000   0.2952
   8.300   1.2437   0.01667   0.00975  -0.0696  0.3130  1.0000  -2.6949   0.0000   0.0000   0.0000   0.2943
   8.400   1.2504   0.01693   0.00997  -0.0690  0.3060  1.0000  -2.7394   0.0000   0.0000   0.0000   0.2934
   8.500   1.2572   0.01718   0.01020  -0.0685  0.2985  1.0000  -2.7845   0.0000   0.0000   0.0000   0.2925
   8.600   1.2639   0.01743   0.01043  -0.0679  0.2912  1.0000  -2.8296   0.0000   0.0000   0.0000   0.2916
   8.700   1.2701   0.01771   0.01068  -0.0673  0.2844  1.0000  -2.8735   0.0000   0.0000   0.0000   0.2907
   8.800   1.2762   0.01798   0.01093  -0.0666  0.2774  1.0000  -2.9174   0.0000   0.0000   0.0000   0.2898
   8.900   1.2820   0.01824   0.01117  -0.0659  0.2707  1.0000  -2.9606   0.0000   0.0000   0.0000   0.2889
   9.000   1.2867   0.01854   0.01144  -0.0650  0.2648  1.0000  -3.0013   0.0000   0.0000   0.0000   0.2879
   9.100   1.2923   0.01882   0.01171  -0.0643  0.2582  1.0000  -3.0443   0.0000   0.0000   0.0000   0.2869
   9.200   1.2976   0.01913   0.01199  -0.0636  0.2521  1.0000  -3.0865   0.0000   0.0000   0.0000   0.2860
   9.300   1.3025   0.01946   0.01229  -0.0628  0.2462  1.0000  -3.1281   0.0000   0.0000   0.0000   0.2851
   9.400   1.3081   0.01976   0.01259  -0.0622  0.2402  1.0000  -3.1714   0.0000   0.0000   0.0000   0.2842
   9.600   1.3182   0.02044   0.01328  -0.0608  0.2288  1.0000  -3.2557   0.0000   0.0000   0.0000   0.2825
   9.700   1.3227   0.02083   0.01364  -0.0601  0.2237  1.0000  -3.2965   0.0000   0.0000   0.0000   0.2816
   9.800   1.3279   0.02117   0.01398  -0.0595  0.2178  1.0000  -3.3395   0.0000   0.0000   0.0000   0.2808
   9.900   1.3326   0.02155   0.01434  -0.0588  0.2126  1.0000  -3.3811   0.0000   0.0000   0.0000   0.2800
  10.000   1.3374   0.02193   0.01471  -0.0582  0.2071  1.0000  -3.4231   0.0000   0.0000   0.0000   0.2792
  10.100   1.3423   0.02232   0.01509  -0.0576  0.2019  1.0000  -3.4655   0.0000   0.0000   0.0000   0.2784
  10.200   1.3467   0.02273   0.01549  -0.0569  0.1968  1.0000  -3.5066   0.0000   0.0000   0.0000   0.2777
  10.300   1.3516   0.02313   0.01588  -0.0563  0.1916  1.0000  -3.5491   0.0000   0.0000   0.0000   0.2769
  10.400   1.3555   0.02358   0.01631  -0.0557  0.1869  1.0000  -3.5892   0.0000   0.0000   0.0000   0.2761
  10.500   1.3604   0.02399   0.01672  -0.0551  0.1819  1.0000  -3.6318   0.0000   0.0000   0.0000   0.2754
  10.600   1.3642   0.02447   0.01718  -0.0545  0.1775  1.0000  -3.6714   0.0000   0.0000   0.0000   0.2747
  10.700   1.3689   0.02490   0.01762  -0.0539  0.1727  1.0000  -3.7137   0.0000   0.0000   0.0000   0.2739
  10.800   1.3725   0.02540   0.01809  -0.0533  0.1685  1.0000  -3.7532   0.0000   0.0000   0.0000   0.2732
  10.900   1.3769   0.02586   0.01856  -0.0527  0.1641  1.0000  -3.7944   0.0000   0.0000   0.0000   0.2725
  11.000   1.3806   0.02636   0.01906  -0.0521  0.1600  1.0000  -3.8341   0.0000   0.0000   0.0000   0.2718
  11.100   1.3842   0.02688   0.01957  -0.0515  0.1561  1.0000  -3.8735   0.0000   0.0000   0.0000   0.2711
  11.200   1.3882   0.02738   0.02007  -0.0510  0.1519  1.0000  -3.9140   0.0000   0.0000   0.0000   0.2704
  11.300   1.3908   0.02799   0.02064  -0.0503  0.1486  1.0000  -3.9504   0.0000   0.0000   0.0000   0.2697
  11.400   1.3954   0.02845   0.02114  -0.0499  0.1442  1.0000  -3.9927   0.0000   0.0000   0.0000   0.2691
  11.500   1.3978   0.02908   0.02174  -0.0492  0.1410  1.0000  -4.0288   0.0000   0.0000   0.0000   0.2684
  11.600   1.4022   0.02957   0.02226  -0.0487  0.1369  1.0000  -4.0702   0.0000   0.0000   0.0000   0.2677
  11.700   1.4050   0.03017   0.02285  -0.0482  0.1335  1.0000  -4.1076   0.0000   0.0000   0.0000   0.2671
  11.800   1.4082   0.03076   0.02347  -0.0476  0.1301  1.0000  -4.1457   0.0000   0.0000   0.0000   0.2665
  11.900   1.4117   0.03133   0.02405  -0.0472  0.1265  1.0000  -4.1847   0.0000   0.0000   0.0000   0.2658
  12.000   1.4133   0.03205   0.02473  -0.0465  0.1238  1.0000  -4.2183   0.0000   0.0000   0.0000   0.2652
  12.100   1.4175   0.03258   0.02531  -0.0461  0.1200  1.0000  -4.2591   0.0000   0.0000   0.0000   0.2646
  12.200   1.4195   0.03328   0.02599  -0.0456  0.1171  1.0000  -4.2939   0.0000   0.0000   0.0000   0.2640
  12.300   1.4222   0.03393   0.02665  -0.0451  0.1140  1.0000  -4.3301   0.0000   0.0000   0.0000   0.2634
  12.400   1.4249   0.03459   0.02733  -0.0446  0.1110  1.0000  -4.3667   0.0000   0.0000   0.0000   0.2628
  12.500   1.4256   0.03540   0.02811  -0.0440  0.1087  1.0000  -4.4000   0.0000   0.0000   0.0000   0.2622
  12.600   1.4291   0.03601   0.02877  -0.0436  0.1054  1.0000  -4.4415   0.0000   0.0000   0.0000   0.2616
  12.700   1.4308   0.03677   0.02952  -0.0431  0.1029  1.0000  -4.4779   0.0000   0.0000   0.0000   0.2611
  12.800   1.4318   0.03759   0.03033  -0.0426  0.1006  1.0000  -4.5116   0.0000   0.0000   0.0000   0.2605
  12.900   1.4345   0.03828   0.03106  -0.0422  0.0977  1.0000  -4.5505   0.0000   0.0000   0.0000   0.2599
  13.000   1.4355   0.03913   0.03189  -0.0417  0.0956  1.0000  -4.5841   0.0000   0.0000   0.0000   0.2594
  13.100   1.4364   0.03998   0.03274  -0.0412  0.0934  1.0000  -4.6169   0.0000   0.0000   0.0000   0.2588
  13.200   1.4386   0.04073   0.03354  -0.0408  0.0909  1.0000  -4.6537   0.0000   0.0000   0.0000   0.2583
  13.300   1.4391   0.04163   0.03443  -0.0404  0.0890  1.0000  -4.6857   0.0000   0.0000   0.0000   0.2578
  13.400   1.4396   0.04254   0.03534  -0.0400  0.0871  1.0000  -4.7166   0.0000   0.0000   0.0000   0.2573
  13.500   1.4416   0.04334   0.03618  -0.0396  0.0848  1.0000  -4.7520   0.0000   0.0000   0.0000   0.2568
  13.600   1.4423   0.04425   0.03710  -0.0392  0.0831  1.0000  -4.7840   0.0000   0.0000   0.0000   0.2563
  13.700   1.4417   0.04528   0.03810  -0.0388  0.0816  1.0000  -4.8113   0.0000   0.0000   0.0000   0.2558
  13.800   1.4437   0.04611   0.03899  -0.0385  0.0795  1.0000  -4.8457   0.0000   0.0000   0.0000   0.2554
  13.900   1.4445   0.04704   0.03994  -0.0382  0.0779  1.0000  -4.8775   0.0000   0.0000   0.0000   0.2549
  14.000   1.4443   0.04808   0.04096  -0.0378  0.0765  1.0000  -4.9061   0.0000   0.0000   0.0000   0.2545
  14.100   1.4448   0.04908   0.04198  -0.0375  0.0750  1.0000  -4.9349   0.0000   0.0000   0.0000   0.2541
  14.200   1.4460   0.05002   0.04298  -0.0372  0.0733  1.0000  -4.9664   0.0000   0.0000   0.0000   0.2537
  14.300   1.4465   0.05103   0.04401  -0.0370  0.0720  1.0000  -4.9965   0.0000   0.0000   0.0000   0.2533
  14.400   1.4461   0.05212   0.04508  -0.0367  0.0709  1.0000  -5.0239   0.0000   0.0000   0.0000   0.2529
  14.500   1.4466   0.05315   0.04615  -0.0365  0.0695  1.0000  -5.0522   0.0000   0.0000   0.0000   0.2525
  14.600   1.4476   0.05416   0.04720  -0.0363  0.0681  1.0000  -5.0820   0.0000   0.0000   0.0000   0.2521
  14.700   1.4480   0.05522   0.04828  -0.0361  0.0669  1.0000  -5.1113   0.0000   0.0000   0.0000   0.2518
  14.800   1.4480   0.05632   0.04937  -0.0359  0.0659  1.0000  -5.1396   0.0000   0.0000   0.0000   0.2514
  14.900   1.4480   0.05742   0.05047  -0.0357  0.0649  1.0000  -5.1662   0.0000   0.0000   0.0000   0.2511
  15.000   1.4489   0.05848   0.05160  -0.0356  0.0637  1.0000  -5.1943   0.0000   0.0000   0.0000   0.2508
  15.100   1.4494   0.05957   0.05272  -0.0354  0.0626  1.0000  -5.2250   0.0000   0.0000   0.0000   0.2505
  15.200   1.4498   0.06067   0.05382  -0.0353  0.0617  1.0000  -5.2571   0.0000   0.0000   0.0000   0.2502
  15.300   1.4499   0.06178   0.05491  -0.0352  0.0609  1.0000  -5.2889   0.0000   0.0000   0.0000   0.2498
  15.400   1.4502   0.06289   0.05605  -0.0350  0.0600  1.0000  -5.3190   0.0000   0.0000   0.0000   0.2495
  15.500   1.4507   0.06403   0.05725  -0.0350  0.0590  1.0000  -5.3487   0.0000   0.0000   0.0000   0.2493
  15.600   1.4512   0.06515   0.05841  -0.0349  0.0581  1.0000  -5.3796   0.0000   0.0000   0.0000   0.2490
  15.700   1.4517   0.06627   0.05953  -0.0349  0.0573  1.0000  -5.4118   0.0000   0.0000   0.0000   0.2487
  15.800   1.4523   0.06734   0.06060  -0.0348  0.0566  1.0000  -5.4452   0.0000   0.0000   0.0000   0.2484
  15.900   1.4532   0.06833   0.06154  -0.0346  0.0560  1.0000  -5.4802   0.0000   0.0000   0.0000   0.2481
  16.000   1.4533   0.06958   0.06288  -0.0346  0.0552  1.0000  -5.5059   0.0000   0.0000   0.0000   0.2479
  16.100   1.4537   0.07076   0.06412  -0.0346  0.0544  1.0000  -5.5345   0.0000   0.0000   0.0000   0.2476
  16.200   1.4543   0.07189   0.06528  -0.0346  0.0537  1.0000  -5.5653   0.0000   0.0000   0.0000   0.2474
  16.300   1.4551   0.07298   0.06638  -0.0345  0.0531  1.0000  -5.5981   0.0000   0.0000   0.0000   0.2471
  16.400   1.4564   0.07398   0.06737  -0.0345  0.0525  1.0000  -5.6341   0.0000   0.0000   0.0000   0.2468
  16.500   1.4586   0.07478   0.06812  -0.0342  0.0520  1.0000  -5.6754   0.0000   0.0000   0.0000   0.2464
  16.600   1.4591   0.07595   0.06935  -0.0342  0.0514  1.0000  -5.7032   0.0000   0.0000   0.0000   0.2462
  16.700   1.4590   0.07725   0.07074  -0.0343  0.0508  1.0000  -5.7275   0.0000   0.0000   0.0000   0.2460
  16.800   1.4593   0.07846   0.07201  -0.0344  0.0502  1.0000  -5.7549   0.0000   0.0000   0.0000   0.2458
  16.900   1.4600   0.07961   0.07319  -0.0344  0.0497  1.0000  -5.7853   0.0000   0.0000   0.0000   0.2456
  17.000   1.4612   0.08067   0.07426  -0.0344  0.0492  1.0000  -5.8191   0.0000   0.0000   0.0000   0.2454
  17.100   1.4630   0.08161   0.07520  -0.0344  0.0487  1.0000  -5.8573   0.0000   0.0000   0.0000   0.2451
  17.200   1.4662   0.08229   0.07584  -0.0342  0.0482  1.0000  -5.9035   0.0000   0.0000   0.0000   0.2447
  17.300   1.4692   0.08301   0.07654  -0.0339  0.0477  1.0000  -5.9466   0.0000   0.0000   0.0000   0.2443
  17.400   1.4678   0.08454   0.07817  -0.0342  0.0473  1.0000  -5.9691   0.0000   0.0000   0.0000   0.2443
  17.500   1.4671   0.08595   0.07965  -0.0345  0.0468  1.0000  -5.9972   0.0000   0.0000   0.0000   0.2442
  17.600   1.4670   0.08727   0.08103  -0.0347  0.0463  1.0000  -6.0291   0.0000   0.0000   0.0000   0.2441
  17.700   1.4674   0.08850   0.08230  -0.0349  0.0459  1.0000  -6.0648   0.0000   0.0000   0.0000   0.2440
  17.800   1.4684   0.08962   0.08344  -0.0350  0.0454  1.0000  -6.1049   0.0000   0.0000   0.0000   0.2438
  17.900   1.4704   0.09054   0.08436  -0.0350  0.0450  1.0000  -6.1524   0.0000   0.0000   0.0000   0.2436
  18.000   1.4743   0.09114   0.08492  -0.0349  0.0446  1.0000  -6.2117   0.0000   0.0000   0.0000   0.2432
  18.100   1.4807   0.09127   0.08499  -0.0343  0.0441  1.0000  -6.2858   0.0000   0.0000   0.0000   0.2425
  18.200   1.4780   0.09304   0.08686  -0.0348  0.0438  1.0000  -6.3005   0.0000   0.0000   0.0000   0.2426
  18.300   1.4763   0.09466   0.08857  -0.0353  0.0435  1.0000  -6.3206   0.0000   0.0000   0.0000   0.2427
  18.400   1.4750   0.09619   0.09018  -0.0357  0.0432  1.0000  -6.3440   0.0000   0.0000   0.0000   0.2428
  18.500   1.4744   0.09762   0.09167  -0.0361  0.0428  1.0000  -6.3714   0.0000   0.0000   0.0000   0.2428
  18.600   1.4743   0.09895   0.09305  -0.0364  0.0425  1.0000  -6.4030   0.0000   0.0000   0.0000   0.2428
  18.700   1.4749   0.10017   0.09431  -0.0367  0.0421  1.0000  -6.4457   0.0000   0.0000   0.0000   0.2427
  18.800   1.4761   0.10128   0.09544  -0.0369  0.0418  1.0000  -6.4956   0.0000   0.0000   0.0000   0.2426
  18.900   1.4782   0.10221   0.09640  -0.0370  0.0415  1.0000  -6.5530   0.0000   0.0000   0.0000   0.2424
  19.000   1.4824   0.10275   0.09692  -0.0369  0.0412  1.0000  -6.6264   0.0000   0.0000   0.0000   0.2420
  19.100   1.4911   0.10247   0.09655  -0.0362  0.0408  1.0000  -6.7330   0.0000   0.0000   0.0000   0.2412
  19.200   1.4905   0.10389   0.09804  -0.0366  0.0406  1.0000  -6.7675   0.0000   0.0000   0.0000   0.2412
  19.300   1.4870   0.10585   0.10010  -0.0374  0.0404  1.0000  -6.7803   0.0000   0.0000   0.0000   0.2415
  19.400   1.4840   0.10773   0.10208  -0.0381  0.0402  1.0000  -6.7957   0.0000   0.0000   0.0000   0.2418
  19.500   1.4813   0.10956   0.10399  -0.0389  0.0400  1.0000  -6.8137   0.0000   0.0000   0.0000   0.2421
  19.600   1.4790   0.11132   0.10584  -0.0396  0.0398  1.0000  -6.8344   0.0000   0.0000   0.0000   0.2424
  19.700   1.4772   0.11301   0.10759  -0.0404  0.0395  1.0000  -6.8586   0.0000   0.0000   0.0000   0.2427
  19.800   1.4759   0.11461   0.10925  -0.0411  0.0393  1.0000  -6.8866   0.0000   0.0000   0.0000   0.2429
  19.900   1.4753   0.11610   0.11079  -0.0417  0.0391  1.0000  -6.9196   0.0000   0.0000   0.0000   0.2431
  20.000   1.4747   0.11756   0.11230  -0.0423  0.0388  1.0000  -6.9540   0.0000   0.0000   0.0000   0.2433


