xflr5 v6.57

 Calculated polar for: QX0123

 1 1 Reynolds number fixed          Mach number fixed         

 xtrf =   1.000 (top)        1.000 (bottom)
 Mach =   0.000     Re =     0.300 e 6     Ncrit =   9.000

  alpha     CL        CD       CDp       Cm    Top Xtr Bot Xtr   Cpmin    Chinge    XCp    
 ------- -------- --------- --------- -------- ------- ------- -------- --------- ---------
  -9.900  -0.5706   0.03856   0.03447  -0.0958  0.9396  0.0334  -4.8352   0.0000   0.0000   0.0000   0.0681
  -9.800  -0.5709   0.03705   0.03280  -0.0958  0.9366  0.0335  -4.8419   0.0000   0.0000   0.0000   0.0684
  -9.700  -0.5687   0.03575   0.03137  -0.0958  0.9332  0.0337  -4.8307   0.0000   0.0000   0.0000   0.0678
  -9.600  -0.5653   0.03470   0.03020  -0.0956  0.9303  0.0339  -4.8046   0.0000   0.0000   0.0000   0.0671
  -9.500  -0.5605   0.03392   0.02933  -0.0953  0.9280  0.0342  -4.7622   0.0000   0.0000   0.0000   0.0663
  -9.400  -0.5550   0.03313   0.02846  -0.0952  0.9255  0.0345  -4.7177   0.0000   0.0000   0.0000   0.0649
  -9.300  -0.5491   0.03233   0.02756  -0.0951  0.9228  0.0348  -4.6733   0.0000   0.0000   0.0000   0.0633
  -9.200  -0.5434   0.03152   0.02665  -0.0949  0.9204  0.0352  -4.6310   0.0000   0.0000   0.0000   0.0619
  -9.100  -0.5378   0.03071   0.02572  -0.0946  0.9183  0.0356  -4.5905   0.0000   0.0000   0.0000   0.0607
  -9.000  -0.5318   0.02990   0.02478  -0.0943  0.9163  0.0360  -4.5500   0.0000   0.0000   0.0000   0.0593
  -8.900  -0.5249   0.02907   0.02381  -0.0942  0.9138  0.0365  -4.5069   0.0000   0.0000   0.0000   0.0571
  -8.800  -0.5179   0.02828   0.02289  -0.0941  0.9116  0.0370  -4.4627   0.0000   0.0000   0.0000   0.0550
  -8.700  -0.5108   0.02755   0.02202  -0.0938  0.9096  0.0374  -4.4161   0.0000   0.0000   0.0000   0.0530
  -8.600  -0.5035   0.02689   0.02122  -0.0935  0.9078  0.0378  -4.3663   0.0000   0.0000   0.0000   0.0510
  -8.500  -0.4959   0.02631   0.02050  -0.0931  0.9063  0.0382  -4.3131   0.0000   0.0000   0.0000   0.0489
  -8.400  -0.4870   0.02575   0.01982  -0.0931  0.9040  0.0385  -4.2536   0.0000   0.0000   0.0000   0.0455
  -8.300  -0.4781   0.02527   0.01923  -0.0930  0.9019  0.0388  -4.1917   0.0000   0.0000   0.0000   0.0422
  -8.200  -0.4692   0.02485   0.01870  -0.0927  0.9000  0.0391  -4.1276   0.0000   0.0000   0.0000   0.0389
  -8.100  -0.4602   0.02449   0.01823  -0.0925  0.8982  0.0393  -4.0614   0.0000   0.0000   0.0000   0.0356
  -7.900  -0.4439   0.02300   0.01650  -0.0919  0.8952  0.0399  -3.9587   0.0000   0.0000   0.0000   0.0294
  -7.800  -0.4349   0.02222   0.01566  -0.0919  0.8930  0.0402  -3.9150   0.0000   0.0000   0.0000   0.0251
  -7.700  -0.4256   0.02168   0.01508  -0.0918  0.8910  0.0406  -3.8619   0.0000   0.0000   0.0000   0.0207
  -7.600  -0.4161   0.02125   0.01462  -0.0916  0.8892  0.0410  -3.8046   0.0000   0.0000   0.0000   0.0162
  -7.500  -0.4066   0.02090   0.01423  -0.0914  0.8875  0.0413  -3.7457   0.0000   0.0000   0.0000   0.0115
  -7.400  -0.3971   0.02058   0.01388  -0.0911  0.8860  0.0417  -3.6865   0.0000   0.0000   0.0000   0.0067
  -7.300  -0.3875   0.02028   0.01354  -0.0909  0.8846  0.0421  -3.6272   0.0000   0.0000   0.0000   0.0016
  -7.200  -0.3771   0.01998   0.01321  -0.0909  0.8824  0.0425  -3.5667   0.0000   0.0000   0.0000  -0.0050
  -7.100  -0.3669   0.01970   0.01289  -0.0908  0.8804  0.0430  -3.5067   0.0000   0.0000   0.0000  -0.0116
  -7.000  -0.3568   0.01945   0.01261  -0.0907  0.8786  0.0436  -3.4455   0.0000   0.0000   0.0000  -0.0183
  -6.900  -0.3467   0.01923   0.01234  -0.0905  0.8769  0.0443  -3.3848   0.0000   0.0000   0.0000  -0.0253
  -6.800  -0.3366   0.01900   0.01207  -0.0903  0.8755  0.0451  -3.3249   0.0000   0.0000   0.0000  -0.0325
  -6.700  -0.3266   0.01879   0.01179  -0.0900  0.8742  0.0458  -3.2666   0.0000   0.0000   0.0000  -0.0402
  -6.600  -0.3159   0.01859   0.01153  -0.0900  0.8723  0.0466  -3.2079   0.0000   0.0000   0.0000  -0.0496
  -6.500  -0.3052   0.01841   0.01129  -0.0899  0.8701  0.0472  -3.1497   0.0000   0.0000   0.0000  -0.0596
  -6.400  -0.2953   0.01794   0.01079  -0.0897  0.8683  0.0479  -3.1009   0.0000   0.0000   0.0000  -0.0690
  -6.300  -0.2858   0.01747   0.01033  -0.0895  0.8666  0.0488  -3.0494   0.0000   0.0000   0.0000  -0.0786
  -6.200  -0.2758   0.01719   0.01005  -0.0893  0.8651  0.0497  -2.9916   0.0000   0.0000   0.0000  -0.0894
  -6.100  -0.2657   0.01697   0.00983  -0.0891  0.8637  0.0506  -2.9331   0.0000   0.0000   0.0000  -0.1011
  -6.000  -0.2553   0.01677   0.00961  -0.0889  0.8622  0.0518  -2.8754   0.0000   0.0000   0.0000  -0.1144
  -5.900  -0.2445   0.01658   0.00940  -0.0889  0.8600  0.0532  -2.8186   0.0000   0.0000   0.0000  -0.1301
  -5.800  -0.2338   0.01640   0.00917  -0.0888  0.8580  0.0546  -2.7631   0.0000   0.0000   0.0000  -0.1467
  -5.700  -0.2233   0.01617   0.00890  -0.0887  0.8563  0.0559  -2.7098   0.0000   0.0000   0.0000  -0.1642
  -5.600  -0.2136   0.01582   0.00859  -0.0885  0.8547  0.0576  -2.6548   0.0000   0.0000   0.0000  -0.1819
  -5.500  -0.2032   0.01565   0.00842  -0.0883  0.8533  0.0593  -2.5952   0.0000   0.0000   0.0000  -0.2027
  -5.400  -0.1927   0.01550   0.00824  -0.0881  0.8521  0.0612  -2.5372   0.0000   0.0000   0.0000  -0.2258
  -5.300  -0.1817   0.01538   0.00808  -0.0881  0.8502  0.0631  -2.4797   0.0000   0.0000   0.0000  -0.2540
  -5.200  -0.1713   0.01512   0.00785  -0.0880  0.8480  0.0650  -2.4241   0.0000   0.0000   0.0000  -0.2838
  -5.100  -0.1607   0.01496   0.00771  -0.0880  0.8461  0.0670  -2.3777   0.0000   0.0000   0.0000  -0.3181
  -5.000  -0.1500   0.01484   0.00758  -0.0878  0.8444  0.0692  -2.3323   0.0000   0.0000   0.0000  -0.3575
  -4.900  -0.1392   0.01473   0.00742  -0.0877  0.8429  0.0714  -2.2885   0.0000   0.0000   0.0000  -0.4029
  -4.800  -0.1289   0.01452   0.00722  -0.0875  0.8415  0.0736  -2.2444   0.0000   0.0000   0.0000  -0.4528
  -4.700  -0.1182   0.01440   0.00711  -0.0874  0.8400  0.0760  -2.1972   0.0000   0.0000   0.0000  -0.5146
  -4.600  -0.1071   0.01431   0.00701  -0.0874  0.8375  0.0788  -2.1512   0.0000   0.0000   0.0000  -0.5933
  -4.500  -0.0964   0.01415   0.00687  -0.0873  0.8354  0.0815  -2.1062   0.0000   0.0000   0.0000  -0.6855
  -4.400  -0.0856   0.01402   0.00675  -0.0872  0.8336  0.0845  -2.0591   0.0000   0.0000   0.0000  -0.8014
  -4.300  -0.0746   0.01393   0.00662  -0.0871  0.8321  0.0882  -2.0137   0.0000   0.0000   0.0000  -0.9537
  -4.200  -0.0641   0.01375   0.00647  -0.0870  0.8307  0.0917  -1.9678   0.0000   0.0000   0.0000  -1.1478
  -4.100  -0.0532   0.01365   0.00634  -0.0868  0.8295  0.0963  -1.9218   0.0000   0.0000   0.0000  -1.4305
  -4.000  -0.0424   0.01350   0.00625  -0.0869  0.8273  0.1009  -1.8753   0.0000   0.0000   0.0000  -1.8561
  -3.900  -0.0315   0.01339   0.00616  -0.0869  0.8250  0.1065  -1.8289   0.0000   0.0000   0.0000  -2.5851
  -3.800  -0.0205   0.01329   0.00608  -0.0868  0.8231  0.1128  -1.7817   0.0000   0.0000   0.0000  -4.0945
  -3.700  -0.0096   0.01318   0.00600  -0.0868  0.8214  0.1192  -1.7346   0.0000   0.0000   0.0000  -8.9765
  -3.600   0.0012   0.01306   0.00590  -0.0867  0.8199  0.1262  -1.6882   0.0000   0.0000   0.0000  71.7176
  -3.500   0.0121   0.01294   0.00579  -0.0865  0.8186  0.1334  -1.6423   0.0000   0.0000   0.0000   7.5738
  -3.400   0.0230   0.01283   0.00571  -0.0865  0.8166  0.1409  -1.5967   0.0000   0.0000   0.0000   4.0953
  -3.300   0.0340   0.01272   0.00564  -0.0865  0.8142  0.1486  -1.5512   0.0000   0.0000   0.0000   2.8533
  -3.200   0.0450   0.01261   0.00556  -0.0865  0.8122  0.1568  -1.5058   0.0000   0.0000   0.0000   2.2165
  -3.100   0.0559   0.01249   0.00548  -0.0865  0.8104  0.1656  -1.4605   0.0000   0.0000   0.0000   1.8283
  -3.000   0.0669   0.01238   0.00539  -0.0864  0.8088  0.1753  -1.4152   0.0000   0.0000   0.0000   1.5668
  -2.900   0.0779   0.01227   0.00530  -0.0863  0.8074  0.1859  -1.3702   0.0000   0.0000   0.0000   1.3787
  -2.800   0.0889   0.01217   0.00524  -0.0862  0.8056  0.1973  -1.3256   0.0000   0.0000   0.0000   1.2380
  -2.700   0.0999   0.01207   0.00520  -0.0863  0.8029  0.2094  -1.2814   0.0000   0.0000   0.0000   1.1292
  -2.600   0.1108   0.01196   0.00514  -0.0862  0.8008  0.2229  -1.2373   0.0000   0.0000   0.0000   1.0412
  -2.500   0.1219   0.01185   0.00507  -0.0862  0.7989  0.2379  -1.1934   0.0000   0.0000   0.0000   0.9687
  -2.400   0.1328   0.01173   0.00499  -0.0861  0.7973  0.2542  -1.1497   0.0000   0.0000   0.0000   0.9081
  -2.300   0.1438   0.01160   0.00491  -0.0860  0.7959  0.2715  -1.1064   0.0000   0.0000   0.0000   0.8568
  -2.200   0.1547   0.01149   0.00489  -0.0860  0.7935  0.2903  -1.0637   0.0000   0.0000   0.0000   0.8137
  -2.100   0.1656   0.01138   0.00486  -0.0860  0.7909  0.3115  -1.0215   0.0000   0.0000   0.0000   0.7762
  -2.000   0.1765   0.01125   0.00481  -0.0860  0.7887  0.3348  -0.9794   0.0000   0.0000   0.0000   0.7431
  -1.900   0.1873   0.01111   0.00475  -0.0859  0.7869  0.3605  -0.9377   0.0000   0.0000   0.0000   0.7138
  -1.800   0.1981   0.01096   0.00469  -0.0858  0.7854  0.3892  -0.8964   0.0000   0.0000   0.0000   0.6876
  -1.600   0.2194   0.01067   0.00465  -0.0857  0.7810  0.4560  -0.8159   0.0000   0.0000   0.0000   0.6439
  -1.500   0.2299   0.01052   0.00464  -0.0856  0.7786  0.4941  -0.7764   0.0000   0.0000   0.0000   0.6252
  -1.400   0.2403   0.01037   0.00462  -0.0854  0.7766  0.5333  -0.7472   0.0000   0.0000   0.0000   0.6078
  -1.300   0.2508   0.01022   0.00458  -0.0851  0.7748  0.5720  -0.7194   0.0000   0.0000   0.0000   0.5916
  -1.200   0.2611   0.01008   0.00455  -0.0848  0.7732  0.6076  -0.6919   0.0000   0.0000   0.0000   0.5766
  -1.100   0.2712   0.00998   0.00458  -0.0845  0.7705  0.6426  -0.6650   0.0000   0.0000   0.0000   0.5631
  -1.000   0.2813   0.00989   0.00460  -0.0842  0.7678  0.6751  -0.6382   0.0000   0.0000   0.0000   0.5504
  -0.900   0.2916   0.00981   0.00458  -0.0838  0.7655  0.7034  -0.6416   0.0000   0.0000   0.0000   0.5383
  -0.800   0.3018   0.00972   0.00456  -0.0834  0.7636  0.7276  -0.6492   0.0000   0.0000   0.0000   0.5269
  -0.700   0.3122   0.00965   0.00452  -0.0830  0.7619  0.7493  -0.6568   0.0000   0.0000   0.0000   0.5162
  -0.600   0.3222   0.00961   0.00455  -0.0827  0.7590  0.7687  -0.6649   0.0000   0.0000   0.0000   0.5066
  -0.500   0.3323   0.00957   0.00455  -0.0823  0.7563  0.7872  -0.6732   0.0000   0.0000   0.0000   0.4974
  -0.400   0.3424   0.00952   0.00453  -0.0818  0.7540  0.8047  -0.6817   0.0000   0.0000   0.0000   0.4886
  -0.300   0.3524   0.00946   0.00449  -0.0813  0.7521  0.8214  -0.6901   0.0000   0.0000   0.0000   0.4801
  -0.200   0.3624   0.00942   0.00446  -0.0808  0.7502  0.8374  -0.6986   0.0000   0.0000   0.0000   0.4722
  -0.100   0.3720   0.00939   0.00449  -0.0803  0.7469  0.8521  -0.7073   0.0000   0.0000   0.0000   0.4650
   0.000   0.3816   0.00935   0.00447  -0.0798  0.7442  0.8664  -0.7169   0.0000   0.0000   0.0000   0.4579
   0.100   0.3914   0.00931   0.00443  -0.0792  0.7420  0.8810  -0.7267   0.0000   0.0000   0.0000   0.4511
   0.200   0.4014   0.00926   0.00438  -0.0787  0.7401  0.8958  -0.7367   0.0000   0.0000   0.0000   0.4445
   0.300   0.4112   0.00924   0.00438  -0.0782  0.7370  0.9106  -0.7465   0.0000   0.0000   0.0000   0.4384
   0.400   0.4222   0.00922   0.00437  -0.0779  0.7341  0.9254  -0.7569   0.0000   0.0000   0.0000   0.4327
   0.500   0.4348   0.00918   0.00432  -0.0780  0.7316  0.9397  -0.7684   0.0000   0.0000   0.0000   0.4273
   0.600   0.4492   0.00914   0.00425  -0.0784  0.7295  0.9532  -0.7810   0.0000   0.0000   0.0000   0.4224
   0.700   0.4654   0.00912   0.00422  -0.0793  0.7265  0.9651  -0.7946   0.0000   0.0000   0.0000   0.4181
   0.800   0.4826   0.00909   0.00419  -0.0805  0.7231  0.9758  -0.8089   0.0000   0.0000   0.0000   0.4143
   0.900   0.5008   0.00905   0.00412  -0.0819  0.7202  0.9851  -0.8238   0.0000   0.0000   0.0000   0.4109
   1.000   0.5196   0.00901   0.00403  -0.0834  0.7179  0.9930  -0.8397   0.0000   0.0000   0.0000   0.4077
   1.100   0.5385   0.00900   0.00401  -0.0850  0.7137  1.0000  -0.8558   0.0000   0.0000   0.0000   0.4050
   1.200   0.5483   0.00899   0.00398  -0.0848  0.7104  1.0000  -0.8664   0.0000   0.0000   0.0000   0.4016
   1.300   0.5585   0.00898   0.00392  -0.0846  0.7076  1.0000  -0.8773   0.0000   0.0000   0.0000   0.3983
   1.400   0.5683   0.00898   0.00392  -0.0844  0.7037  1.0000  -0.8879   0.0000   0.0000   0.0000   0.3952
   1.500   0.5785   0.00899   0.00389  -0.0842  0.6999  1.0000  -0.8988   0.0000   0.0000   0.0000   0.3921
   1.600   0.5891   0.00898   0.00384  -0.0840  0.6969  1.0000  -0.9121   0.0000   0.0000   0.0000   0.3891
   1.700   0.5994   0.00899   0.00384  -0.0839  0.6929  1.0000  -0.9252   0.0000   0.0000   0.0000   0.3863
   1.800   0.6099   0.00900   0.00383  -0.0838  0.6891  1.0000  -0.9386   0.0000   0.0000   0.0000   0.3836
   1.900   0.6208   0.00901   0.00379  -0.0837  0.6861  1.0000  -0.9524   0.0000   0.0000   0.0000   0.3809
   2.000   0.6314   0.00903   0.00381  -0.0836  0.6822  1.0000  -0.9663   0.0000   0.0000   0.0000   0.3784
   2.100   0.6421   0.00905   0.00381  -0.0835  0.6784  1.0000  -0.9804   0.0000   0.0000   0.0000   0.3759
   2.200   0.6531   0.00906   0.00378  -0.0834  0.6753  1.0000  -0.9948   0.0000   0.0000   0.0000   0.3735
   2.300   0.6638   0.00909   0.00380  -0.0833  0.6712  1.0000  -1.0093   0.0000   0.0000   0.0000   0.3712
   2.400   0.6746   0.00911   0.00381  -0.0832  0.6671  1.0000  -1.0241   0.0000   0.0000   0.0000   0.3689
   2.500   0.6856   0.00913   0.00378  -0.0831  0.6639  1.0000  -1.0393   0.0000   0.0000   0.0000   0.3667
   2.600   0.6962   0.00916   0.00381  -0.0830  0.6590  1.0000  -1.0540   0.0000   0.0000   0.0000   0.3646
   2.700   0.7071   0.00919   0.00381  -0.0829  0.6550  1.0000  -1.0691   0.0000   0.0000   0.0000   0.3625
   2.800   0.7180   0.00922   0.00382  -0.0829  0.6507  1.0000  -1.0841   0.0000   0.0000   0.0000   0.3605
   2.900   0.7287   0.00924   0.00383  -0.0828  0.6458  1.0000  -1.0994   0.0000   0.0000   0.0000   0.3586
   3.000   0.7397   0.00928   0.00382  -0.0827  0.6418  1.0000  -1.1158   0.0000   0.0000   0.0000   0.3567
   3.100   0.7503   0.00931   0.00385  -0.0826  0.6362  1.0000  -1.1319   0.0000   0.0000   0.0000   0.3549
   3.200   0.7612   0.00934   0.00384  -0.0825  0.6318  1.0000  -1.1484   0.0000   0.0000   0.0000   0.3530
   3.300   0.7718   0.00938   0.00388  -0.0824  0.6261  1.0000  -1.1647   0.0000   0.0000   0.0000   0.3513
   3.400   0.7826   0.00942   0.00390  -0.0823  0.6213  1.0000  -1.1819   0.0000   0.0000   0.0000   0.3496
   3.500   0.7933   0.00946   0.00394  -0.0822  0.6156  1.0000  -1.2001   0.0000   0.0000   0.0000   0.3479
   3.600   0.8040   0.00951   0.00395  -0.0821  0.6107  1.0000  -1.2186   0.0000   0.0000   0.0000   0.3463
   3.700   0.8147   0.00956   0.00399  -0.0820  0.6053  1.0000  -1.2370   0.0000   0.0000   0.0000   0.3447
   3.800   0.8255   0.00962   0.00401  -0.0819  0.6003  1.0000  -1.2556   0.0000   0.0000   0.0000   0.3432
   3.900   0.8361   0.00967   0.00406  -0.0818  0.5949  1.0000  -1.2741   0.0000   0.0000   0.0000   0.3417
   4.000   0.8468   0.00973   0.00409  -0.0817  0.5898  1.0000  -1.2927   0.0000   0.0000   0.0000   0.3402
   4.100   0.8574   0.00980   0.00413  -0.0816  0.5843  1.0000  -1.3114   0.0000   0.0000   0.0000   0.3388
   4.200   0.8680   0.00986   0.00417  -0.0814  0.5789  1.0000  -1.3323   0.0000   0.0000   0.0000   0.3374
   4.300   0.8785   0.00993   0.00422  -0.0813  0.5731  1.0000  -1.3539   0.0000   0.0000   0.0000   0.3360
   4.400   0.8890   0.01000   0.00427  -0.0812  0.5676  1.0000  -1.3755   0.0000   0.0000   0.0000   0.3347
   4.500   0.8995   0.01007   0.00433  -0.0811  0.5617  1.0000  -1.3972   0.0000   0.0000   0.0000   0.3334
   4.600   0.9099   0.01016   0.00437  -0.0810  0.5561  1.0000  -1.4189   0.0000   0.0000   0.0000   0.3321
   4.700   0.9203   0.01023   0.00444  -0.0808  0.5499  1.0000  -1.4415   0.0000   0.0000   0.0000   0.3308
   4.800   0.9306   0.01033   0.00449  -0.0807  0.5442  1.0000  -1.4656   0.0000   0.0000   0.0000   0.3296
   4.900   0.9410   0.01040   0.00456  -0.0805  0.5376  1.0000  -1.4898   0.0000   0.0000   0.0000   0.3284
   5.000   0.9512   0.01050   0.00463  -0.0804  0.5315  1.0000  -1.5140   0.0000   0.0000   0.0000   0.3272
   5.100   0.9613   0.01059   0.00470  -0.0802  0.5248  1.0000  -1.5383   0.0000   0.0000   0.0000   0.3260
   5.200   0.9715   0.01069   0.00481  -0.0801  0.5181  1.0000  -1.5626   0.0000   0.0000   0.0000   0.3248
   5.300   0.9815   0.01080   0.00488  -0.0799  0.5119  1.0000  -1.5868   0.0000   0.0000   0.0000   0.3237
   5.400   0.9916   0.01089   0.00497  -0.0797  0.5047  1.0000  -1.6129   0.0000   0.0000   0.0000   0.3225
   5.500   1.0015   0.01100   0.00505  -0.0795  0.4980  1.0000  -1.6390   0.0000   0.0000   0.0000   0.3214
   5.600   1.0114   0.01112   0.00513  -0.0793  0.4913  1.0000  -1.6651   0.0000   0.0000   0.0000   0.3203
   5.700   1.0214   0.01122   0.00523  -0.0791  0.4842  1.0000  -1.6914   0.0000   0.0000   0.0000   0.3193
   5.800   1.0311   0.01135   0.00532  -0.0789  0.4777  1.0000  -1.7176   0.0000   0.0000   0.0000   0.3182
   5.900   1.0409   0.01147   0.00541  -0.0787  0.4706  1.0000  -1.7466   0.0000   0.0000   0.0000   0.3172
   6.000   1.0506   0.01159   0.00551  -0.0785  0.4635  1.0000  -1.7776   0.0000   0.0000   0.0000   0.3162
   6.100   1.0601   0.01173   0.00562  -0.0783  0.4567  1.0000  -1.8084   0.0000   0.0000   0.0000   0.3151
   6.200   1.0697   0.01185   0.00573  -0.0780  0.4490  1.0000  -1.8395   0.0000   0.0000   0.0000   0.3141
   6.300   1.0792   0.01199   0.00584  -0.0778  0.4415  1.0000  -1.8706   0.0000   0.0000   0.0000   0.3131
   6.400   1.0884   0.01214   0.00595  -0.0775  0.4345  1.0000  -1.9015   0.0000   0.0000   0.0000   0.3121
   6.500   1.0978   0.01228   0.00607  -0.0773  0.4269  1.0000  -1.9336   0.0000   0.0000   0.0000   0.3112
   6.600   1.1071   0.01242   0.00619  -0.0770  0.4193  1.0000  -1.9701   0.0000   0.0000   0.0000   0.3102
   6.700   1.1162   0.01258   0.00632  -0.0767  0.4120  1.0000  -2.0105   0.0000   0.0000   0.0000   0.3093
   6.800   1.1251   0.01274   0.00645  -0.0764  0.4043  1.0000  -2.0509   0.0000   0.0000   0.0000   0.3083
   6.900   1.1342   0.01290   0.00659  -0.0761  0.3964  1.0000  -2.0917   0.0000   0.0000   0.0000   0.3074
   7.000   1.1430   0.01307   0.00673  -0.0758  0.3887  1.0000  -2.1324   0.0000   0.0000   0.0000   0.3065
   7.100   1.1515   0.01326   0.00687  -0.0754  0.3813  1.0000  -2.1726   0.0000   0.0000   0.0000   0.3055
   7.200   1.1604   0.01343   0.00702  -0.0751  0.3733  1.0000  -2.2137   0.0000   0.0000   0.0000   0.3046
   7.300   1.1691   0.01360   0.00722  -0.0748  0.3657  1.0000  -2.2548   0.0000   0.0000   0.0000   0.3037
   7.400   1.1775   0.01379   0.00738  -0.0744  0.3584  1.0000  -2.2995   0.0000   0.0000   0.0000   0.3028
   7.500   1.1858   0.01399   0.00755  -0.0741  0.3507  1.0000  -2.3461   0.0000   0.0000   0.0000   0.3019
   7.600   1.1942   0.01418   0.00771  -0.0737  0.3431  1.0000  -2.3931   0.0000   0.0000   0.0000   0.3010
   7.700   1.2023   0.01438   0.00789  -0.0733  0.3357  1.0000  -2.4397   0.0000   0.0000   0.0000   0.3001
   7.800   1.2100   0.01461   0.00807  -0.0728  0.3282  1.0000  -2.4857   0.0000   0.0000   0.0000   0.2992
   7.900   1.2180   0.01481   0.00825  -0.0724  0.3204  1.0000  -2.5326   0.0000   0.0000   0.0000   0.2984
   8.000   1.2259   0.01502   0.00844  -0.0720  0.3128  1.0000  -2.5793   0.0000   0.0000   0.0000   0.2975
   8.100   1.2333   0.01526   0.00864  -0.0715  0.3056  1.0000  -2.6253   0.0000   0.0000   0.0000   0.2966
   8.200   1.2407   0.01549   0.00885  -0.0710  0.2981  1.0000  -2.6715   0.0000   0.0000   0.0000   0.2957
   8.300   1.2482   0.01571   0.00905  -0.0706  0.2905  1.0000  -2.7183   0.0000   0.0000   0.0000   0.2949
   8.400   1.2553   0.01596   0.00926  -0.0701  0.2835  1.0000  -2.7641   0.0000   0.0000   0.0000   0.2940
   8.500   1.2620   0.01622   0.00949  -0.0695  0.2765  1.0000  -2.8093   0.0000   0.0000   0.0000   0.2931
   8.600   1.2692   0.01645   0.00970  -0.0690  0.2694  1.0000  -2.8558   0.0000   0.0000   0.0000   0.2922
   8.700   1.2758   0.01671   0.00994  -0.0684  0.2629  1.0000  -2.9010   0.0000   0.0000   0.0000   0.2914
   8.800   1.2817   0.01698   0.01018  -0.0677  0.2566  1.0000  -2.9448   0.0000   0.0000   0.0000   0.2904
   8.900   1.2879   0.01722   0.01041  -0.0670  0.2502  1.0000  -2.9893   0.0000   0.0000   0.0000   0.2895
   9.000   1.2931   0.01752   0.01067  -0.0663  0.2446  1.0000  -3.0315   0.0000   0.0000   0.0000   0.2885
   9.100   1.2993   0.01778   0.01092  -0.0656  0.2384  1.0000  -3.0765   0.0000   0.0000   0.0000   0.2877
   9.200   1.3049   0.01808   0.01119  -0.0650  0.2328  1.0000  -3.1199   0.0000   0.0000   0.0000   0.2868
   9.300   1.3105   0.01838   0.01147  -0.0643  0.2269  1.0000  -3.1636   0.0000   0.0000   0.0000   0.2859
   9.400   1.3162   0.01868   0.01180  -0.0637  0.2212  1.0000  -3.2079   0.0000   0.0000   0.0000   0.2851
   9.500   1.3213   0.01902   0.01211  -0.0630  0.2157  1.0000  -3.2503   0.0000   0.0000   0.0000   0.2842
   9.600   1.3273   0.01932   0.01241  -0.0624  0.2099  1.0000  -3.2957   0.0000   0.0000   0.0000   0.2834
   9.700   1.3320   0.01970   0.01275  -0.0617  0.2048  1.0000  -3.3375   0.0000   0.0000   0.0000   0.2826
   9.800   1.3382   0.01999   0.01305  -0.0612  0.1990  1.0000  -3.3835   0.0000   0.0000   0.0000   0.2818
   9.900   1.3431   0.02037   0.01340  -0.0606  0.1940  1.0000  -3.4261   0.0000   0.0000   0.0000   0.2810
  10.000   1.3486   0.02071   0.01374  -0.0600  0.1887  1.0000  -3.4706   0.0000   0.0000   0.0000   0.2802
  10.100   1.3535   0.02110   0.01411  -0.0594  0.1840  1.0000  -3.5134   0.0000   0.0000   0.0000   0.2795
  10.200   1.3588   0.02147   0.01447  -0.0588  0.1789  1.0000  -3.5575   0.0000   0.0000   0.0000   0.2787
  10.300   1.3636   0.02187   0.01486  -0.0583  0.1744  1.0000  -3.6003   0.0000   0.0000   0.0000   0.2780
  10.400   1.3686   0.02226   0.01524  -0.0577  0.1697  1.0000  -3.6440   0.0000   0.0000   0.0000   0.2772
  10.500   1.3731   0.02269   0.01566  -0.0571  0.1655  1.0000  -3.6861   0.0000   0.0000   0.0000   0.2765
  10.600   1.3782   0.02309   0.01606  -0.0566  0.1609  1.0000  -3.7299   0.0000   0.0000   0.0000   0.2758
  10.700   1.3822   0.02356   0.01651  -0.0559  0.1570  1.0000  -3.7708   0.0000   0.0000   0.0000   0.2750
  10.800   1.3873   0.02397   0.01692  -0.0554  0.1526  1.0000  -3.8149   0.0000   0.0000   0.0000   0.2743
  10.900   1.3905   0.02450   0.01742  -0.0548  0.1490  1.0000  -3.8538   0.0000   0.0000   0.0000   0.2736
  11.000   1.3961   0.02489   0.01782  -0.0543  0.1445  1.0000  -3.8994   0.0000   0.0000   0.0000   0.2729
  11.100   1.3995   0.02542   0.01833  -0.0537  0.1409  1.0000  -3.9388   0.0000   0.0000   0.0000   0.2722
  11.200   1.4046   0.02584   0.01877  -0.0532  0.1368  1.0000  -3.9834   0.0000   0.0000   0.0000   0.2716
  11.300   1.4083   0.02636   0.01928  -0.0527  0.1332  1.0000  -4.0238   0.0000   0.0000   0.0000   0.2709
  11.400   1.4127   0.02684   0.01976  -0.0521  0.1295  1.0000  -4.0663   0.0000   0.0000   0.0000   0.2702
  11.500   1.4166   0.02735   0.02027  -0.0516  0.1259  1.0000  -4.1076   0.0000   0.0000   0.0000   0.2696
  11.600   1.4201   0.02790   0.02083  -0.0511  0.1226  1.0000  -4.1474   0.0000   0.0000   0.0000   0.2689
  11.700   1.4244   0.02840   0.02134  -0.0506  0.1190  1.0000  -4.1897   0.0000   0.0000   0.0000   0.2683
  11.800   1.4267   0.02904   0.02196  -0.0500  0.1162  1.0000  -4.2263   0.0000   0.0000   0.0000   0.2676
  11.900   1.4313   0.02952   0.02247  -0.0495  0.1127  1.0000  -4.2694   0.0000   0.0000   0.0000   0.2670
  12.000   1.4341   0.03014   0.02308  -0.0490  0.1098  1.0000  -4.3073   0.0000   0.0000   0.0000   0.2664
  12.100   1.4373   0.03074   0.02368  -0.0485  0.1068  1.0000  -4.3461   0.0000   0.0000   0.0000   0.2658
  12.200   1.4407   0.03133   0.02428  -0.0480  0.1038  1.0000  -4.3856   0.0000   0.0000   0.0000   0.2652
  12.300   1.4422   0.03206   0.02499  -0.0474  0.1015  1.0000  -4.4195   0.0000   0.0000   0.0000   0.2645
  12.400   1.4461   0.03261   0.02557  -0.0470  0.0985  1.0000  -4.4635   0.0000   0.0000   0.0000   0.2640
  12.500   1.4484   0.03331   0.02626  -0.0464  0.0960  1.0000  -4.5025   0.0000   0.0000   0.0000   0.2634
  12.600   1.4500   0.03405   0.02700  -0.0459  0.0938  1.0000  -4.5392   0.0000   0.0000   0.0000   0.2628
  12.700   1.4532   0.03468   0.02766  -0.0455  0.0911  1.0000  -4.5812   0.0000   0.0000   0.0000   0.2622
  12.800   1.4547   0.03545   0.02842  -0.0449  0.0890  1.0000  -4.6174   0.0000   0.0000   0.0000   0.2616
  12.900   1.4565   0.03621   0.02919  -0.0445  0.0868  1.0000  -4.6542   0.0000   0.0000   0.0000   0.2611
  13.000   1.4592   0.03689   0.02991  -0.0440  0.0844  1.0000  -4.6942   0.0000   0.0000   0.0000   0.2605
  13.100   1.4602   0.03773   0.03074  -0.0436  0.0826  1.0000  -4.7286   0.0000   0.0000   0.0000   0.2600
  13.200   1.4617   0.03853   0.03155  -0.0431  0.0806  1.0000  -4.7642   0.0000   0.0000   0.0000   0.2594
  13.300   1.4639   0.03928   0.03233  -0.0427  0.0785  1.0000  -4.8022   0.0000   0.0000   0.0000   0.2589
  13.400   1.4645   0.04017   0.03321  -0.0423  0.0769  1.0000  -4.8352   0.0000   0.0000   0.0000   0.2584
  13.500   1.4650   0.04109   0.03413  -0.0418  0.0753  1.0000  -4.8667   0.0000   0.0000   0.0000   0.2579
  13.600   1.4671   0.04186   0.03495  -0.0414  0.0733  1.0000  -4.9038   0.0000   0.0000   0.0000   0.2574
  13.700   1.4678   0.04277   0.03587  -0.0411  0.0718  1.0000  -4.9365   0.0000   0.0000   0.0000   0.2569
  13.800   1.4669   0.04384   0.03693  -0.0406  0.0706  1.0000  -4.9633   0.0000   0.0000   0.0000   0.2564
  13.900   1.4689   0.04466   0.03779  -0.0403  0.0688  1.0000  -4.9993   0.0000   0.0000   0.0000   0.2560
  14.000   1.4700   0.04557   0.03875  -0.0400  0.0673  1.0000  -5.0328   0.0000   0.0000   0.0000   0.2555
  14.100   1.4700   0.04661   0.03978  -0.0397  0.0661  1.0000  -5.0624   0.0000   0.0000   0.0000   0.2551
  14.200   1.4693   0.04771   0.04089  -0.0394  0.0650  1.0000  -5.0891   0.0000   0.0000   0.0000   0.2547
  14.300   1.4710   0.04861   0.04183  -0.0391  0.0635  1.0000  -5.1234   0.0000   0.0000   0.0000   0.2543
  14.400   1.4718   0.04961   0.04286  -0.0389  0.0622  1.0000  -5.1550   0.0000   0.0000   0.0000   0.2539
  14.500   1.4715   0.05072   0.04397  -0.0387  0.0613  1.0000  -5.1835   0.0000   0.0000   0.0000   0.2535
  14.600   1.4703   0.05192   0.04517  -0.0384  0.0604  1.0000  -5.2077   0.0000   0.0000   0.0000   0.2532
  14.700   1.4717   0.05290   0.04621  -0.0383  0.0591  1.0000  -5.2398   0.0000   0.0000   0.0000   0.2528
  14.800   1.4722   0.05396   0.04730  -0.0381  0.0580  1.0000  -5.2699   0.0000   0.0000   0.0000   0.2525
  14.900   1.4722   0.05510   0.04845  -0.0380  0.0571  1.0000  -5.2984   0.0000   0.0000   0.0000   0.2522
  15.000   1.4712   0.05634   0.04969  -0.0378  0.0564  1.0000  -5.3242   0.0000   0.0000   0.0000   0.2519
  15.100   1.4706   0.05755   0.05092  -0.0377  0.0556  1.0000  -5.3520   0.0000   0.0000   0.0000   0.2516
  15.200   1.4713   0.05864   0.05206  -0.0376  0.0546  1.0000  -5.3845   0.0000   0.0000   0.0000   0.2513
  15.300   1.4715   0.05979   0.05325  -0.0375  0.0538  1.0000  -5.4155   0.0000   0.0000   0.0000   0.2510
  15.400   1.4713   0.06099   0.05447  -0.0374  0.0530  1.0000  -5.4456   0.0000   0.0000   0.0000   0.2508
  15.500   1.4706   0.06224   0.05573  -0.0374  0.0524  1.0000  -5.4741   0.0000   0.0000   0.0000   0.2505
  15.600   1.4692   0.06356   0.05703  -0.0373  0.0519  1.0000  -5.4993   0.0000   0.0000   0.0000   0.2503
  15.700   1.4696   0.06473   0.05826  -0.0373  0.0511  1.0000  -5.5292   0.0000   0.0000   0.0000   0.2500
  15.800   1.4698   0.06594   0.05952  -0.0373  0.0504  1.0000  -5.5588   0.0000   0.0000   0.0000   0.2498
  15.900   1.4698   0.06716   0.06077  -0.0373  0.0497  1.0000  -5.5881   0.0000   0.0000   0.0000   0.2496
  16.000   1.4696   0.06841   0.06204  -0.0373  0.0491  1.0000  -5.6173   0.0000   0.0000   0.0000   0.2494
  16.100   1.4692   0.06967   0.06331  -0.0373  0.0486  1.0000  -5.6463   0.0000   0.0000   0.0000   0.2492
  16.200   1.4686   0.07094   0.06458  -0.0374  0.0481  1.0000  -5.6744   0.0000   0.0000   0.0000   0.2490
  16.300   1.4681   0.07219   0.06584  -0.0373  0.0476  1.0000  -5.7017   0.0000   0.0000   0.0000   0.2487
  16.400   1.4682   0.07346   0.06718  -0.0374  0.0471  1.0000  -5.7289   0.0000   0.0000   0.0000   0.2486
  16.500   1.4681   0.07473   0.06850  -0.0375  0.0465  1.0000  -5.7565   0.0000   0.0000   0.0000   0.2484
  16.600   1.4680   0.07600   0.06981  -0.0376  0.0460  1.0000  -5.7848   0.0000   0.0000   0.0000   0.2482
  16.700   1.4680   0.07726   0.07109  -0.0377  0.0455  1.0000  -5.8138   0.0000   0.0000   0.0000   0.2481
  16.800   1.4680   0.07850   0.07234  -0.0378  0.0451  1.0000  -5.8440   0.0000   0.0000   0.0000   0.2479
  16.900   1.4682   0.07970   0.07353  -0.0379  0.0447  1.0000  -5.8752   0.0000   0.0000   0.0000   0.2477
  17.000   1.4686   0.08079   0.07460  -0.0378  0.0443  1.0000  -5.9086   0.0000   0.0000   0.0000   0.2475
  17.100   1.4683   0.08213   0.07600  -0.0380  0.0438  1.0000  -5.9333   0.0000   0.0000   0.0000   0.2473
  17.200   1.4678   0.08352   0.07746  -0.0382  0.0434  1.0000  -5.9569   0.0000   0.0000   0.0000   0.2473
  17.300   1.4676   0.08487   0.07886  -0.0384  0.0429  1.0000  -5.9828   0.0000   0.0000   0.0000   0.2472
  17.400   1.4674   0.08619   0.08021  -0.0386  0.0425  1.0000  -6.0100   0.0000   0.0000   0.0000   0.2471
  17.500   1.4676   0.08745   0.08150  -0.0388  0.0420  1.0000  -6.0392   0.0000   0.0000   0.0000   0.2470
  17.600   1.4680   0.08866   0.08272  -0.0390  0.0417  1.0000  -6.0772   0.0000   0.0000   0.0000   0.2469
  17.700   1.4688   0.08979   0.08384  -0.0391  0.0413  1.0000  -6.1184   0.0000   0.0000   0.0000   0.2467
  17.800   1.4705   0.09071   0.08474  -0.0391  0.0409  1.0000  -6.1654   0.0000   0.0000   0.0000   0.2464
  17.900   1.4713   0.09180   0.08584  -0.0391  0.0406  1.0000  -6.2052   0.0000   0.0000   0.0000   0.2462
  18.000   1.4702   0.09336   0.08747  -0.0395  0.0402  1.0000  -6.2303   0.0000   0.0000   0.0000   0.2463
  18.100   1.4694   0.09482   0.08900  -0.0399  0.0399  1.0000  -6.2584   0.0000   0.0000   0.0000   0.2463
  18.200   1.4691   0.09621   0.09045  -0.0402  0.0395  1.0000  -6.2893   0.0000   0.0000   0.0000   0.2463
  18.300   1.4690   0.09755   0.09182  -0.0405  0.0392  1.0000  -6.3299   0.0000   0.0000   0.0000   0.2462
  18.400   1.4695   0.09880   0.09310  -0.0408  0.0389  1.0000  -6.3753   0.0000   0.0000   0.0000   0.2462
  18.500   1.4703   0.09996   0.09429  -0.0410  0.0386  1.0000  -6.4242   0.0000   0.0000   0.0000   0.2461
  18.600   1.4717   0.10102   0.09535  -0.0412  0.0383  1.0000  -6.4774   0.0000   0.0000   0.0000   0.2459
  18.700   1.4739   0.10189   0.09621  -0.0413  0.0380  1.0000  -6.5376   0.0000   0.0000   0.0000   0.2457
  18.800   1.4778   0.10241   0.09669  -0.0411  0.0377  1.0000  -6.6103   0.0000   0.0000   0.0000   0.2452
  18.900   1.4807   0.10312   0.09740  -0.0410  0.0374  1.0000  -6.6744   0.0000   0.0000   0.0000   0.2449
  19.000   1.4791   0.10477   0.09913  -0.0416  0.0372  1.0000  -6.7027   0.0000   0.0000   0.0000   0.2450
  19.100   1.4780   0.10634   0.10077  -0.0421  0.0370  1.0000  -6.7343   0.0000   0.0000   0.0000   0.2452
  19.200   1.4772   0.10785   0.10235  -0.0426  0.0367  1.0000  -6.7682   0.0000   0.0000   0.0000   0.2453
  19.300   1.4767   0.10928   0.10384  -0.0431  0.0365  1.0000  -6.8052   0.0000   0.0000   0.0000   0.2454
  19.400   1.4766   0.11067   0.10527  -0.0436  0.0362  1.0000  -6.8445   0.0000   0.0000   0.0000   0.2454
  19.500   1.4768   0.11199   0.10663  -0.0440  0.0360  1.0000  -6.8868   0.0000   0.0000   0.0000   0.2455
  19.600   1.4773   0.11324   0.10792  -0.0445  0.0357  1.0000  -6.9321   0.0000   0.0000   0.0000   0.2455
  19.700   1.4783   0.11441   0.10911  -0.0449  0.0355  1.0000  -6.9813   0.0000   0.0000   0.0000   0.2455
  19.800   1.4801   0.11541   0.11012  -0.0452  0.0353  1.0000  -7.0374   0.0000   0.0000   0.0000   0.2454
  19.900   1.4832   0.11614   0.11083  -0.0453  0.0350  1.0000  -7.1048   0.0000   0.0000   0.0000   0.2452
  20.000   1.4889   0.11631   0.11096  -0.0450  0.0347  1.0000  -7.1942   0.0000   0.0000   0.0000   0.2446


