xflr5 v6.57

 Calculated polar for: QX0123

 1 1 Reynolds number fixed          Mach number fixed         

 xtrf =   1.000 (top)        1.000 (bottom)
 Mach =   0.000     Re =     0.320 e 6     Ncrit =   9.000

  alpha     CL        CD       CDp       Cm    Top Xtr Bot Xtr   Cpmin    Chinge    XCp    
 ------- -------- --------- --------- -------- ------- ------- -------- --------- ---------
  -9.900  -0.5865   0.03705   0.03265  -0.0941  0.9305  0.0318  -5.0164   0.0000   0.0000   0.0000   0.0758
  -9.800  -0.5906   0.03469   0.03004  -0.0939  0.9276  0.0320  -5.0663   0.0000   0.0000   0.0000   0.0773
  -9.700  -0.5908   0.03264   0.02780  -0.0939  0.9245  0.0323  -5.0864   0.0000   0.0000   0.0000   0.0774
  -9.600  -0.5876   0.03125   0.02628  -0.0938  0.9217  0.0326  -5.0667   0.0000   0.0000   0.0000   0.0768
  -9.500  -0.5822   0.03038   0.02533  -0.0935  0.9194  0.0329  -5.0189   0.0000   0.0000   0.0000   0.0758
  -9.400  -0.5757   0.02977   0.02468  -0.0932  0.9175  0.0332  -4.9578   0.0000   0.0000   0.0000   0.0746
  -9.300  -0.5681   0.02925   0.02411  -0.0931  0.9154  0.0336  -4.8902   0.0000   0.0000   0.0000   0.0727
  -9.200  -0.5601   0.02877   0.02357  -0.0930  0.9130  0.0340  -4.8213   0.0000   0.0000   0.0000   0.0706
  -9.100  -0.5523   0.02829   0.02303  -0.0929  0.9108  0.0344  -4.7546   0.0000   0.0000   0.0000   0.0686
  -9.000  -0.5444   0.02783   0.02251  -0.0926  0.9090  0.0348  -4.6875   0.0000   0.0000   0.0000   0.0666
  -8.900  -0.5366   0.02737   0.02198  -0.0923  0.9073  0.0352  -4.6219   0.0000   0.0000   0.0000   0.0647
  -8.800  -0.5285   0.02686   0.02139  -0.0922  0.9055  0.0356  -4.5582   0.0000   0.0000   0.0000   0.0624
  -8.700  -0.5198   0.02632   0.02076  -0.0921  0.9034  0.0361  -4.4948   0.0000   0.0000   0.0000   0.0595
  -8.600  -0.5113   0.02577   0.02011  -0.0920  0.9013  0.0365  -4.4331   0.0000   0.0000   0.0000   0.0569
  -8.500  -0.5029   0.02524   0.01948  -0.0918  0.8995  0.0369  -4.3718   0.0000   0.0000   0.0000   0.0543
  -8.400  -0.4945   0.02472   0.01885  -0.0915  0.8978  0.0373  -4.3103   0.0000   0.0000   0.0000   0.0517
  -8.300  -0.4860   0.02423   0.01826  -0.0912  0.8963  0.0377  -4.2480   0.0000   0.0000   0.0000   0.0491
  -8.200  -0.4768   0.02376   0.01769  -0.0911  0.8946  0.0380  -4.1829   0.0000   0.0000   0.0000   0.0457
  -8.100  -0.4673   0.02332   0.01715  -0.0910  0.8925  0.0383  -4.1156   0.0000   0.0000   0.0000   0.0419
  -8.000  -0.4577   0.02291   0.01665  -0.0909  0.8906  0.0386  -4.0475   0.0000   0.0000   0.0000   0.0381
  -7.900  -0.4483   0.02254   0.01619  -0.0907  0.8888  0.0389  -3.9811   0.0000   0.0000   0.0000   0.0343
  -7.800  -0.4388   0.02220   0.01577  -0.0905  0.8872  0.0391  -3.9264   0.0000   0.0000   0.0000   0.0304
  -7.700  -0.4293   0.02190   0.01538  -0.0902  0.8858  0.0393  -3.8705   0.0000   0.0000   0.0000   0.0264
  -7.600  -0.4194   0.02163   0.01503  -0.0900  0.8842  0.0394  -3.8126   0.0000   0.0000   0.0000   0.0219
  -7.500  -0.4105   0.02069   0.01401  -0.0900  0.8821  0.0399  -3.7769   0.0000   0.0000   0.0000   0.0173
  -7.400  -0.4012   0.02004   0.01331  -0.0898  0.8801  0.0403  -3.7292   0.0000   0.0000   0.0000   0.0124
  -7.300  -0.3917   0.01957   0.01281  -0.0897  0.8784  0.0407  -3.6738   0.0000   0.0000   0.0000   0.0073
  -7.200  -0.3820   0.01921   0.01242  -0.0895  0.8768  0.0411  -3.6148   0.0000   0.0000   0.0000   0.0019
  -7.100  -0.3722   0.01891   0.01210  -0.0893  0.8753  0.0415  -3.5543   0.0000   0.0000   0.0000  -0.0037
  -7.000  -0.3623   0.01867   0.01183  -0.0890  0.8741  0.0420  -3.4916   0.0000   0.0000   0.0000  -0.0097
  -6.900  -0.3517   0.01846   0.01162  -0.0891  0.8720  0.0427  -3.4258   0.0000   0.0000   0.0000  -0.0174
  -6.800  -0.3411   0.01826   0.01140  -0.0890  0.8701  0.0434  -3.3609   0.0000   0.0000   0.0000  -0.0253
  -6.700  -0.3307   0.01807   0.01118  -0.0889  0.8683  0.0441  -3.2979   0.0000   0.0000   0.0000  -0.0334
  -6.600  -0.3203   0.01786   0.01093  -0.0888  0.8666  0.0449  -3.2371   0.0000   0.0000   0.0000  -0.0417
  -6.500  -0.3100   0.01765   0.01067  -0.0886  0.8651  0.0457  -3.1781   0.0000   0.0000   0.0000  -0.0505
  -6.400  -0.2997   0.01745   0.01041  -0.0884  0.8638  0.0465  -3.1205   0.0000   0.0000   0.0000  -0.0597
  -6.300  -0.2892   0.01727   0.01016  -0.0882  0.8624  0.0471  -3.0633   0.0000   0.0000   0.0000  -0.0700
  -6.200  -0.2790   0.01684   0.00972  -0.0881  0.8602  0.0479  -3.0135   0.0000   0.0000   0.0000  -0.0813
  -6.100  -0.2691   0.01642   0.00933  -0.0880  0.8582  0.0490  -2.9601   0.0000   0.0000   0.0000  -0.0927
  -6.000  -0.2588   0.01619   0.00911  -0.0879  0.8564  0.0501  -2.9003   0.0000   0.0000   0.0000  -0.1055
  -5.900  -0.2483   0.01600   0.00891  -0.0878  0.8549  0.0513  -2.8407   0.0000   0.0000   0.0000  -0.1195
  -5.800  -0.2379   0.01583   0.00871  -0.0876  0.8535  0.0527  -2.7829   0.0000   0.0000   0.0000  -0.1347
  -5.700  -0.2273   0.01567   0.00850  -0.0874  0.8523  0.0543  -2.7263   0.0000   0.0000   0.0000  -0.1513
  -5.600  -0.2163   0.01554   0.00832  -0.0873  0.8505  0.0556  -2.6692   0.0000   0.0000   0.0000  -0.1710
  -5.500  -0.2063   0.01516   0.00800  -0.0873  0.8484  0.0575  -2.6149   0.0000   0.0000   0.0000  -0.1907
  -5.400  -0.1956   0.01500   0.00785  -0.0872  0.8465  0.0593  -2.5542   0.0000   0.0000   0.0000  -0.2141
  -5.300  -0.1849   0.01486   0.00769  -0.0871  0.8448  0.0612  -2.4948   0.0000   0.0000   0.0000  -0.2402
  -5.200  -0.1740   0.01474   0.00753  -0.0870  0.8433  0.0631  -2.4366   0.0000   0.0000   0.0000  -0.2695
  -5.100  -0.1638   0.01450   0.00729  -0.0868  0.8420  0.0651  -2.3946   0.0000   0.0000   0.0000  -0.3004
  -5.000  -0.1533   0.01435   0.00714  -0.0867  0.8408  0.0671  -2.3478   0.0000   0.0000   0.0000  -0.3366
  -4.900  -0.1422   0.01424   0.00704  -0.0867  0.8386  0.0693  -2.3011   0.0000   0.0000   0.0000  -0.3818
  -4.800  -0.1311   0.01415   0.00691  -0.0867  0.8364  0.0716  -2.2558   0.0000   0.0000   0.0000  -0.4345
  -4.700  -0.1206   0.01395   0.00675  -0.0866  0.8345  0.0739  -2.2102   0.0000   0.0000   0.0000  -0.4928
  -4.600  -0.1097   0.01383   0.00663  -0.0865  0.8328  0.0764  -2.1625   0.0000   0.0000   0.0000  -0.5646
  -4.500  -0.0988   0.01373   0.00650  -0.0863  0.8313  0.0793  -2.1164   0.0000   0.0000   0.0000  -0.6528
  -4.400  -0.0882   0.01357   0.00635  -0.0862  0.8300  0.0822  -2.0703   0.0000   0.0000   0.0000  -0.7591
  -4.300  -0.0772   0.01347   0.00625  -0.0862  0.8284  0.0856  -2.0229   0.0000   0.0000   0.0000  -0.9010
  -4.200  -0.0661   0.01336   0.00615  -0.0862  0.8261  0.0893  -1.9771   0.0000   0.0000   0.0000  -1.0932
  -4.100  -0.0552   0.01322   0.00604  -0.0862  0.8242  0.0933  -1.9300   0.0000   0.0000   0.0000  -1.3565
  -4.000  -0.0443   0.01310   0.00591  -0.0861  0.8224  0.0980  -1.8839   0.0000   0.0000   0.0000  -1.7500
  -3.900  -0.0334   0.01297   0.00580  -0.0860  0.8208  0.1033  -1.8367   0.0000   0.0000   0.0000  -2.3973
  -3.800  -0.0226   0.01284   0.00570  -0.0859  0.8194  0.1090  -1.7896   0.0000   0.0000   0.0000  -3.6618
  -3.700  -0.0116   0.01274   0.00561  -0.0858  0.8182  0.1154  -1.7423   0.0000   0.0000   0.0000  -7.3273
  -3.600  -0.0005   0.01266   0.00556  -0.0859  0.8158  0.1225  -1.6952   0.0000   0.0000   0.0000  -187.5394
  -3.500   0.0106   0.01258   0.00549  -0.0859  0.8136  0.1299  -1.6485   0.0000   0.0000   0.0000   8.5140
  -3.400   0.0216   0.01245   0.00540  -0.0859  0.8117  0.1372  -1.6022   0.0000   0.0000   0.0000   4.3164
  -3.300   0.0326   0.01233   0.00531  -0.0858  0.8100  0.1449  -1.5561   0.0000   0.0000   0.0000   2.9443
  -3.200   0.0436   0.01221   0.00521  -0.0857  0.8085  0.1529  -1.5103   0.0000   0.0000   0.0000   2.2617
  -3.100   0.0546   0.01209   0.00512  -0.0857  0.8072  0.1614  -1.4647   0.0000   0.0000   0.0000   1.8530
  -3.000   0.0656   0.01200   0.00506  -0.0857  0.8051  0.1709  -1.4193   0.0000   0.0000   0.0000   1.5814
  -2.900   0.0767   0.01191   0.00502  -0.0857  0.8027  0.1809  -1.3741   0.0000   0.0000   0.0000   1.3887
  -2.800   0.0878   0.01180   0.00495  -0.0857  0.8006  0.1919  -1.3292   0.0000   0.0000   0.0000   1.2443
  -2.700   0.0988   0.01169   0.00487  -0.0856  0.7988  0.2040  -1.2845   0.0000   0.0000   0.0000   1.1316
  -2.600   0.1099   0.01157   0.00479  -0.0855  0.7972  0.2167  -1.2401   0.0000   0.0000   0.0000   1.0419
  -2.500   0.1209   0.01146   0.00471  -0.0855  0.7958  0.2307  -1.1958   0.0000   0.0000   0.0000   0.9683
  -2.400   0.1320   0.01137   0.00468  -0.0855  0.7935  0.2463  -1.1521   0.0000   0.0000   0.0000   0.9077
  -2.300   0.1430   0.01127   0.00464  -0.0855  0.7910  0.2627  -1.1088   0.0000   0.0000   0.0000   0.8567
  -2.200   0.1540   0.01115   0.00459  -0.0855  0.7889  0.2805  -1.0658   0.0000   0.0000   0.0000   0.8127
  -2.100   0.1650   0.01102   0.00453  -0.0854  0.7870  0.3002  -1.0230   0.0000   0.0000   0.0000   0.7745
  -2.000   0.1760   0.01090   0.00446  -0.0854  0.7855  0.3225  -0.9806   0.0000   0.0000   0.0000   0.7410
  -1.900   0.1870   0.01077   0.00440  -0.0853  0.7841  0.3467  -0.9386   0.0000   0.0000   0.0000   0.7113
  -1.800   0.1978   0.01065   0.00440  -0.0853  0.7813  0.3731  -0.8975   0.0000   0.0000   0.0000   0.6860
  -1.700   0.2086   0.01051   0.00437  -0.0853  0.7789  0.4029  -0.8567   0.0000   0.0000   0.0000   0.6629
  -1.600   0.2193   0.01036   0.00433  -0.0853  0.7769  0.4359  -0.8163   0.0000   0.0000   0.0000   0.6420
  -1.500   0.2300   0.01020   0.00429  -0.0851  0.7751  0.4720  -0.7763   0.0000   0.0000   0.0000   0.6230
  -1.400   0.2407   0.01004   0.00425  -0.0850  0.7736  0.5112  -0.7469   0.0000   0.0000   0.0000   0.6055
  -1.300   0.2511   0.00990   0.00425  -0.0848  0.7713  0.5494  -0.7192   0.0000   0.0000   0.0000   0.5898
  -1.200   0.2615   0.00979   0.00426  -0.0846  0.7685  0.5859  -0.6918   0.0000   0.0000   0.0000   0.5753
  -1.100   0.2718   0.00966   0.00425  -0.0844  0.7661  0.6213  -0.6646   0.0000   0.0000   0.0000   0.5617
  -1.000   0.2821   0.00954   0.00423  -0.0840  0.7641  0.6549  -0.6375   0.0000   0.0000   0.0000   0.5489
  -0.900   0.2925   0.00945   0.00421  -0.0837  0.7624  0.6860  -0.6429   0.0000   0.0000   0.0000   0.5368
  -0.800   0.3028   0.00938   0.00422  -0.0834  0.7600  0.7119  -0.6503   0.0000   0.0000   0.0000   0.5258
  -0.700   0.3130   0.00932   0.00424  -0.0830  0.7571  0.7344  -0.6577   0.0000   0.0000   0.0000   0.5155
  -0.600   0.3234   0.00926   0.00423  -0.0827  0.7548  0.7550  -0.6661   0.0000   0.0000   0.0000   0.5057
  -0.500   0.3337   0.00920   0.00420  -0.0823  0.7527  0.7735  -0.6746   0.0000   0.0000   0.0000   0.4965
  -0.400   0.3440   0.00915   0.00417  -0.0819  0.7510  0.7912  -0.6832   0.0000   0.0000   0.0000   0.4877
  -0.300   0.3541   0.00911   0.00418  -0.0815  0.7481  0.8083  -0.6915   0.0000   0.0000   0.0000   0.4796
  -0.200   0.3640   0.00908   0.00419  -0.0811  0.7453  0.8245  -0.6998   0.0000   0.0000   0.0000   0.4719
  -0.100   0.3740   0.00903   0.00416  -0.0806  0.7429  0.8398  -0.7090   0.0000   0.0000   0.0000   0.4646
   0.000   0.3841   0.00899   0.00412  -0.0802  0.7409  0.8543  -0.7189   0.0000   0.0000   0.0000   0.4575
   0.100   0.3939   0.00895   0.00410  -0.0797  0.7386  0.8683  -0.7287   0.0000   0.0000   0.0000   0.4508
   0.200   0.4035   0.00893   0.00411  -0.0791  0.7354  0.8827  -0.7383   0.0000   0.0000   0.0000   0.4446
   0.300   0.4132   0.00889   0.00409  -0.0786  0.7327  0.8974  -0.7481   0.0000   0.0000   0.0000   0.4385
   0.500   0.4345   0.00882   0.00400  -0.0778  0.7286  0.9267  -0.7689   0.0000   0.0000   0.0000   0.4270
   0.600   0.4468   0.00880   0.00401  -0.0779  0.7250  0.9409  -0.7801   0.0000   0.0000   0.0000   0.4221
   0.700   0.4609   0.00877   0.00397  -0.0783  0.7219  0.9545  -0.7925   0.0000   0.0000   0.0000   0.4176
   0.800   0.4772   0.00874   0.00390  -0.0792  0.7194  0.9661  -0.8063   0.0000   0.0000   0.0000   0.4135
   0.900   0.4943   0.00871   0.00385  -0.0804  0.7165  0.9766  -0.8205   0.0000   0.0000   0.0000   0.4099
   1.000   0.5121   0.00869   0.00383  -0.0817  0.7126  0.9860  -0.8354   0.0000   0.0000   0.0000   0.4068
   1.100   0.5306   0.00866   0.00377  -0.0832  0.7095  0.9937  -0.8514   0.0000   0.0000   0.0000   0.4039
   1.200   0.5489   0.00863   0.00369  -0.0846  0.7068  1.0000  -0.8675   0.0000   0.0000   0.0000   0.4012
   1.300   0.5584   0.00864   0.00370  -0.0844  0.7025  1.0000  -0.8778   0.0000   0.0000   0.0000   0.3980
   1.400   0.5685   0.00864   0.00367  -0.0842  0.6990  1.0000  -0.8887   0.0000   0.0000   0.0000   0.3948
   1.500   0.5790   0.00864   0.00361  -0.0840  0.6962  1.0000  -0.8998   0.0000   0.0000   0.0000   0.3917
   1.600   0.5890   0.00865   0.00363  -0.0839  0.6918  1.0000  -0.9125   0.0000   0.0000   0.0000   0.3889
   1.700   0.5995   0.00866   0.00361  -0.0837  0.6882  1.0000  -0.9259   0.0000   0.0000   0.0000   0.3860
   1.800   0.6103   0.00867   0.00357  -0.0836  0.6854  1.0000  -0.9395   0.0000   0.0000   0.0000   0.3832
   1.900   0.6208   0.00869   0.00359  -0.0835  0.6811  1.0000  -0.9528   0.0000   0.0000   0.0000   0.3807
   2.000   0.6315   0.00871   0.00358  -0.0834  0.6775  1.0000  -0.9669   0.0000   0.0000   0.0000   0.3781
   2.100   0.6425   0.00873   0.00356  -0.0833  0.6746  1.0000  -0.9813   0.0000   0.0000   0.0000   0.3756
   2.200   0.6531   0.00875   0.00359  -0.0833  0.6701  1.0000  -0.9953   0.0000   0.0000   0.0000   0.3733
   2.300   0.6639   0.00877   0.00359  -0.0832  0.6663  1.0000  -1.0100   0.0000   0.0000   0.0000   0.3709
   2.400   0.6749   0.00880   0.00357  -0.0831  0.6629  1.0000  -1.0250   0.0000   0.0000   0.0000   0.3687
   2.500   0.6856   0.00883   0.00360  -0.0830  0.6581  1.0000  -1.0397   0.0000   0.0000   0.0000   0.3665
   2.600   0.6965   0.00885   0.00359  -0.0829  0.6543  1.0000  -1.0548   0.0000   0.0000   0.0000   0.3644
   2.700   0.7073   0.00888   0.00361  -0.0828  0.6498  1.0000  -1.0698   0.0000   0.0000   0.0000   0.3624
   2.800   0.7181   0.00891   0.00362  -0.0828  0.6452  1.0000  -1.0848   0.0000   0.0000   0.0000   0.3604
   2.900   0.7290   0.00895   0.00361  -0.0827  0.6409  1.0000  -1.1002   0.0000   0.0000   0.0000   0.3584
   3.000   0.7397   0.00898   0.00364  -0.0826  0.6356  1.0000  -1.1164   0.0000   0.0000   0.0000   0.3565
   3.200   0.7613   0.00905   0.00367  -0.0824  0.6255  1.0000  -1.1491   0.0000   0.0000   0.0000   0.3529
   3.300   0.7721   0.00910   0.00367  -0.0823  0.6209  1.0000  -1.1656   0.0000   0.0000   0.0000   0.3511
   3.400   0.7828   0.00914   0.00373  -0.0822  0.6150  1.0000  -1.1826   0.0000   0.0000   0.0000   0.3495
   3.500   0.7935   0.00919   0.00374  -0.0821  0.6102  1.0000  -1.2010   0.0000   0.0000   0.0000   0.3478
   3.600   0.8043   0.00923   0.00378  -0.0820  0.6046  1.0000  -1.2194   0.0000   0.0000   0.0000   0.3462
   3.700   0.8150   0.00929   0.00380  -0.0819  0.5998  1.0000  -1.2379   0.0000   0.0000   0.0000   0.3446
   3.800   0.8257   0.00934   0.00384  -0.0818  0.5943  1.0000  -1.2564   0.0000   0.0000   0.0000   0.3431
   3.900   0.8364   0.00941   0.00387  -0.0817  0.5893  1.0000  -1.2750   0.0000   0.0000   0.0000   0.3416
   4.000   0.8470   0.00947   0.00392  -0.0816  0.5838  1.0000  -1.2935   0.0000   0.0000   0.0000   0.3402
   4.100   0.8576   0.00954   0.00396  -0.0815  0.5785  1.0000  -1.3123   0.0000   0.0000   0.0000   0.3387
   4.200   0.8682   0.00960   0.00401  -0.0814  0.5727  1.0000  -1.3332   0.0000   0.0000   0.0000   0.3374
   4.300   0.8788   0.00967   0.00405  -0.0813  0.5672  1.0000  -1.3548   0.0000   0.0000   0.0000   0.3360
   4.400   0.8893   0.00974   0.00411  -0.0812  0.5613  1.0000  -1.3764   0.0000   0.0000   0.0000   0.3347
   4.500   0.8998   0.00983   0.00415  -0.0811  0.5559  1.0000  -1.3981   0.0000   0.0000   0.0000   0.3333
   4.600   0.9102   0.00990   0.00422  -0.0810  0.5497  1.0000  -1.4199   0.0000   0.0000   0.0000   0.3321
   4.700   0.9206   0.00999   0.00427  -0.0808  0.5440  1.0000  -1.4425   0.0000   0.0000   0.0000   0.3308
   4.800   0.9310   0.01007   0.00434  -0.0807  0.5376  1.0000  -1.4667   0.0000   0.0000   0.0000   0.3296
   4.900   0.9412   0.01016   0.00440  -0.0806  0.5314  1.0000  -1.4909   0.0000   0.0000   0.0000   0.3283
   5.000   0.9515   0.01025   0.00447  -0.0804  0.5249  1.0000  -1.5151   0.0000   0.0000   0.0000   0.3271
   5.100   0.9617   0.01035   0.00454  -0.0803  0.5182  1.0000  -1.5394   0.0000   0.0000   0.0000   0.3260
   5.300   0.9819   0.01055   0.00473  -0.0799  0.5048  1.0000  -1.5881   0.0000   0.0000   0.0000   0.3237
   5.400   0.9919   0.01066   0.00481  -0.0797  0.4982  1.0000  -1.6142   0.0000   0.0000   0.0000   0.3226
   5.500   1.0018   0.01077   0.00489  -0.0796  0.4914  1.0000  -1.6402   0.0000   0.0000   0.0000   0.3215
   5.600   1.0119   0.01087   0.00498  -0.0794  0.4845  1.0000  -1.6665   0.0000   0.0000   0.0000   0.3204
   5.700   1.0217   0.01099   0.00507  -0.0792  0.4780  1.0000  -1.6927   0.0000   0.0000   0.0000   0.3193
   5.800   1.0316   0.01111   0.00516  -0.0790  0.4710  1.0000  -1.7191   0.0000   0.0000   0.0000   0.3183
   5.900   1.0414   0.01123   0.00526  -0.0788  0.4640  1.0000  -1.7484   0.0000   0.0000   0.0000   0.3172
   6.000   1.0509   0.01137   0.00536  -0.0786  0.4572  1.0000  -1.7791   0.0000   0.0000   0.0000   0.3162
   6.100   1.0607   0.01148   0.00546  -0.0784  0.4495  1.0000  -1.8103   0.0000   0.0000   0.0000   0.3152
   6.200   1.0703   0.01161   0.00557  -0.0782  0.4422  1.0000  -1.8414   0.0000   0.0000   0.0000   0.3142
   6.300   1.0796   0.01177   0.00568  -0.0779  0.4351  1.0000  -1.8722   0.0000   0.0000   0.0000   0.3132
   6.400   1.0891   0.01190   0.00580  -0.0777  0.4275  1.0000  -1.9036   0.0000   0.0000   0.0000   0.3122
   6.500   1.0985   0.01204   0.00591  -0.0774  0.4201  1.0000  -1.9358   0.0000   0.0000   0.0000   0.3113
   6.600   1.1077   0.01220   0.00604  -0.0771  0.4129  1.0000  -1.9728   0.0000   0.0000   0.0000   0.3103
   6.700   1.1168   0.01235   0.00616  -0.0769  0.4051  1.0000  -2.0134   0.0000   0.0000   0.0000   0.3094
   6.800   1.1260   0.01250   0.00629  -0.0766  0.3972  1.0000  -2.0543   0.0000   0.0000   0.0000   0.3084
   6.900   1.1349   0.01267   0.00643  -0.0763  0.3897  1.0000  -2.0948   0.0000   0.0000   0.0000   0.3075
   7.000   1.1436   0.01285   0.00657  -0.0760  0.3821  1.0000  -2.1352   0.0000   0.0000   0.0000   0.3065
   7.100   1.1526   0.01301   0.00671  -0.0757  0.3742  1.0000  -2.1765   0.0000   0.0000   0.0000   0.3056
   7.200   1.1614   0.01318   0.00686  -0.0754  0.3667  1.0000  -2.2175   0.0000   0.0000   0.0000   0.3047
   7.300   1.1699   0.01338   0.00706  -0.0750  0.3594  1.0000  -2.2582   0.0000   0.0000   0.0000   0.3038
   7.400   1.1785   0.01355   0.00722  -0.0747  0.3516  1.0000  -2.3048   0.0000   0.0000   0.0000   0.3029
   7.500   1.1870   0.01374   0.00738  -0.0743  0.3441  1.0000  -2.3519   0.0000   0.0000   0.0000   0.3021
   7.600   1.1952   0.01394   0.00755  -0.0739  0.3368  1.0000  -2.3984   0.0000   0.0000   0.0000   0.3012
   7.700   1.2033   0.01415   0.00772  -0.0735  0.3290  1.0000  -2.4451   0.0000   0.0000   0.0000   0.3003
   7.800   1.2115   0.01435   0.00790  -0.0731  0.3212  1.0000  -2.4922   0.0000   0.0000   0.0000   0.2994
   7.900   1.2194   0.01456   0.00808  -0.0727  0.3138  1.0000  -2.5390   0.0000   0.0000   0.0000   0.2985
   8.000   1.2269   0.01480   0.00827  -0.0723  0.3065  1.0000  -2.5851   0.0000   0.0000   0.0000   0.2976
   8.100   1.2348   0.01501   0.00846  -0.0718  0.2988  1.0000  -2.6322   0.0000   0.0000   0.0000   0.2968
   8.200   1.2425   0.01523   0.00866  -0.0714  0.2914  1.0000  -2.6792   0.0000   0.0000   0.0000   0.2959
   8.300   1.2497   0.01547   0.00887  -0.0709  0.2843  1.0000  -2.7252   0.0000   0.0000   0.0000   0.2950
   8.400   1.2568   0.01571   0.00908  -0.0704  0.2771  1.0000  -2.7713   0.0000   0.0000   0.0000   0.2942
   8.500   1.2642   0.01594   0.00929  -0.0699  0.2700  1.0000  -2.8181   0.0000   0.0000   0.0000   0.2933
   8.600   1.2709   0.01620   0.00951  -0.0693  0.2635  1.0000  -2.8637   0.0000   0.0000   0.0000   0.2924
   8.700   1.2777   0.01646   0.00974  -0.0688  0.2569  1.0000  -2.9094   0.0000   0.0000   0.0000   0.2916
   8.800   1.2843   0.01670   0.00997  -0.0682  0.2505  1.0000  -2.9549   0.0000   0.0000   0.0000   0.2907
   8.900   1.2896   0.01698   0.01021  -0.0674  0.2448  1.0000  -2.9973   0.0000   0.0000   0.0000   0.2897
   9.000   1.2960   0.01721   0.01044  -0.0668  0.2386  1.0000  -3.0429   0.0000   0.0000   0.0000   0.2888
   9.100   1.3017   0.01750   0.01071  -0.0661  0.2330  1.0000  -3.0864   0.0000   0.0000   0.0000   0.2879
   9.200   1.3075   0.01779   0.01097  -0.0654  0.2270  1.0000  -3.1308   0.0000   0.0000   0.0000   0.2870
   9.300   1.3134   0.01808   0.01124  -0.0648  0.2213  1.0000  -3.1753   0.0000   0.0000   0.0000   0.2862
   9.400   1.3187   0.01840   0.01157  -0.0641  0.2157  1.0000  -3.2183   0.0000   0.0000   0.0000   0.2853
   9.500   1.3248   0.01869   0.01185  -0.0636  0.2099  1.0000  -3.2641   0.0000   0.0000   0.0000   0.2845
   9.600   1.3298   0.01904   0.01218  -0.0629  0.2047  1.0000  -3.3066   0.0000   0.0000   0.0000   0.2836
   9.700   1.3361   0.01933   0.01247  -0.0624  0.1989  1.0000  -3.3528   0.0000   0.0000   0.0000   0.2829
   9.800   1.3412   0.01969   0.01280  -0.0617  0.1938  1.0000  -3.3962   0.0000   0.0000   0.0000   0.2821
   9.900   1.3468   0.02002   0.01312  -0.0612  0.1885  1.0000  -3.4409   0.0000   0.0000   0.0000   0.2813
  10.000   1.3520   0.02038   0.01347  -0.0606  0.1837  1.0000  -3.4846   0.0000   0.0000   0.0000   0.2805
  10.100   1.3574   0.02074   0.01382  -0.0600  0.1787  1.0000  -3.5290   0.0000   0.0000   0.0000   0.2798
  10.200   1.3625   0.02112   0.01418  -0.0594  0.1742  1.0000  -3.5727   0.0000   0.0000   0.0000   0.2790
  10.300   1.3677   0.02150   0.01455  -0.0589  0.1695  1.0000  -3.6166   0.0000   0.0000   0.0000   0.2783
  10.400   1.3725   0.02190   0.01494  -0.0583  0.1652  1.0000  -3.6598   0.0000   0.0000   0.0000   0.2775
  10.500   1.3776   0.02230   0.01533  -0.0577  0.1606  1.0000  -3.7037   0.0000   0.0000   0.0000   0.2768
  10.600   1.3821   0.02273   0.01575  -0.0571  0.1566  1.0000  -3.7461   0.0000   0.0000   0.0000   0.2761
  10.700   1.3871   0.02314   0.01615  -0.0566  0.1522  1.0000  -3.7901   0.0000   0.0000   0.0000   0.2754
  10.800   1.3910   0.02362   0.01661  -0.0560  0.1484  1.0000  -3.8310   0.0000   0.0000   0.0000   0.2746
  10.900   1.3964   0.02401   0.01701  -0.0555  0.1440  1.0000  -3.8763   0.0000   0.0000   0.0000   0.2740
  11.100   1.4054   0.02491   0.01791  -0.0544  0.1362  1.0000  -3.9621   0.0000   0.0000   0.0000   0.2726
  11.200   1.4091   0.02543   0.01841  -0.0538  0.1327  1.0000  -4.0024   0.0000   0.0000   0.0000   0.2719
  11.300   1.4141   0.02586   0.01885  -0.0534  0.1288  1.0000  -4.0470   0.0000   0.0000   0.0000   0.2712
  11.400   1.4179   0.02638   0.01935  -0.0528  0.1253  1.0000  -4.0880   0.0000   0.0000   0.0000   0.2706
  11.500   1.4221   0.02687   0.01984  -0.0523  0.1218  1.0000  -4.1303   0.0000   0.0000   0.0000   0.2699
  11.600   1.4262   0.02737   0.02037  -0.0518  0.1183  1.0000  -4.1722   0.0000   0.0000   0.0000   0.2693
  11.700   1.4293   0.02795   0.02094  -0.0512  0.1154  1.0000  -4.2112   0.0000   0.0000   0.0000   0.2686
  11.800   1.4338   0.02844   0.02144  -0.0507  0.1119  1.0000  -4.2543   0.0000   0.0000   0.0000   0.2680
  11.900   1.4364   0.02906   0.02204  -0.0501  0.1092  1.0000  -4.2918   0.0000   0.0000   0.0000   0.2673
  12.000   1.4405   0.02958   0.02258  -0.0497  0.1060  1.0000  -4.3336   0.0000   0.0000   0.0000   0.2667
  12.100   1.4437   0.03017   0.02318  -0.0491  0.1031  1.0000  -4.3728   0.0000   0.0000   0.0000   0.2661
  12.200   1.4461   0.03083   0.02382  -0.0486  0.1006  1.0000  -4.4097   0.0000   0.0000   0.0000   0.2655
  12.300   1.4499   0.03139   0.02440  -0.0481  0.0977  1.0000  -4.4514   0.0000   0.0000   0.0000   0.2649
  12.400   1.4519   0.03209   0.02509  -0.0476  0.0954  1.0000  -4.4900   0.0000   0.0000   0.0000   0.2643
  12.500   1.4548   0.03273   0.02574  -0.0471  0.0929  1.0000  -4.5310   0.0000   0.0000   0.0000   0.2637
  12.600   1.4577   0.03337   0.02640  -0.0466  0.0903  1.0000  -4.5723   0.0000   0.0000   0.0000   0.2631
  12.700   1.4588   0.03416   0.02717  -0.0461  0.0883  1.0000  -4.6077   0.0000   0.0000   0.0000   0.2625
  12.800   1.4621   0.03478   0.02783  -0.0456  0.0858  1.0000  -4.6498   0.0000   0.0000   0.0000   0.2619
  12.900   1.4644   0.03549   0.02855  -0.0451  0.0836  1.0000  -4.6889   0.0000   0.0000   0.0000   0.2614
  13.000   1.4649   0.03636   0.02940  -0.0446  0.0819  1.0000  -4.7221   0.0000   0.0000   0.0000   0.2608
  13.100   1.4681   0.03700   0.03008  -0.0442  0.0796  1.0000  -4.7637   0.0000   0.0000   0.0000   0.2603
  13.200   1.4698   0.03778   0.03086  -0.0438  0.0776  1.0000  -4.8008   0.0000   0.0000   0.0000   0.2597
  13.300   1.4698   0.03871   0.03178  -0.0433  0.0761  1.0000  -4.8319   0.0000   0.0000   0.0000   0.2592
  13.400   1.4724   0.03943   0.03254  -0.0429  0.0741  1.0000  -4.8710   0.0000   0.0000   0.0000   0.2587
  13.500   1.4739   0.04025   0.03337  -0.0425  0.0723  1.0000  -4.9070   0.0000   0.0000   0.0000   0.2582
  13.600   1.4739   0.04121   0.03433  -0.0420  0.0709  1.0000  -4.9375   0.0000   0.0000   0.0000   0.2577
  13.700   1.4752   0.04206   0.03521  -0.0416  0.0693  1.0000  -4.9718   0.0000   0.0000   0.0000   0.2572
  13.800   1.4768   0.04289   0.03607  -0.0413  0.0676  1.0000  -5.0077   0.0000   0.0000   0.0000   0.2567
  13.900   1.4771   0.04386   0.03706  -0.0409  0.0663  1.0000  -5.0392   0.0000   0.0000   0.0000   0.2562
  14.000   1.4763   0.04495   0.03815  -0.0405  0.0652  1.0000  -5.0659   0.0000   0.0000   0.0000   0.2558
  14.100   1.4784   0.04577   0.03902  -0.0403  0.0636  1.0000  -5.1025   0.0000   0.0000   0.0000   0.2553
  14.200   1.4794   0.04671   0.03999  -0.0400  0.0622  1.0000  -5.1358   0.0000   0.0000   0.0000   0.2549
  14.300   1.4792   0.04779   0.04106  -0.0397  0.0612  1.0000  -5.1648   0.0000   0.0000   0.0000   0.2545
  14.400   1.4783   0.04894   0.04221  -0.0394  0.0602  1.0000  -5.1908   0.0000   0.0000   0.0000   0.2541
  14.500   1.4799   0.04986   0.04319  -0.0392  0.0589  1.0000  -5.2246   0.0000   0.0000   0.0000   0.2538
  14.600   1.4805   0.05089   0.04425  -0.0390  0.0578  1.0000  -5.2559   0.0000   0.0000   0.0000   0.2534
  14.700   1.4803   0.05201   0.04538  -0.0388  0.0569  1.0000  -5.2845   0.0000   0.0000   0.0000   0.2531
  14.800   1.4788   0.05328   0.04664  -0.0386  0.0562  1.0000  -5.3077   0.0000   0.0000   0.0000   0.2527
  14.900   1.4793   0.05436   0.04777  -0.0384  0.0552  1.0000  -5.3366   0.0000   0.0000   0.0000   0.2524
  15.000   1.4800   0.05544   0.04888  -0.0383  0.0542  1.0000  -5.3691   0.0000   0.0000   0.0000   0.2521
  15.100   1.4800   0.05658   0.05005  -0.0382  0.0534  1.0000  -5.4007   0.0000   0.0000   0.0000   0.2518
  15.200   1.4796   0.05779   0.05127  -0.0381  0.0527  1.0000  -5.4305   0.0000   0.0000   0.0000   0.2515
  15.300   1.4781   0.05911   0.05259  -0.0380  0.0521  1.0000  -5.4559   0.0000   0.0000   0.0000   0.2513
  15.400   1.4776   0.06033   0.05385  -0.0379  0.0514  1.0000  -5.4839   0.0000   0.0000   0.0000   0.2510
  15.500   1.4782   0.06148   0.05504  -0.0379  0.0506  1.0000  -5.5155   0.0000   0.0000   0.0000   0.2507
  15.600   1.4782   0.06267   0.05628  -0.0379  0.0498  1.0000  -5.5458   0.0000   0.0000   0.0000   0.2505
  15.700   1.4779   0.06391   0.05754  -0.0378  0.0492  1.0000  -5.5753   0.0000   0.0000   0.0000   0.2502
  15.800   1.4773   0.06520   0.05884  -0.0379  0.0486  1.0000  -5.6036   0.0000   0.0000   0.0000   0.2500
  15.900   1.4761   0.06653   0.06017  -0.0379  0.0482  1.0000  -5.6298   0.0000   0.0000   0.0000   0.2498
  16.000   1.4751   0.06786   0.06151  -0.0378  0.0477  1.0000  -5.6550   0.0000   0.0000   0.0000   0.2496
  16.100   1.4753   0.06909   0.06280  -0.0379  0.0470  1.0000  -5.6841   0.0000   0.0000   0.0000   0.2494
  16.200   1.4752   0.07036   0.06412  -0.0379  0.0464  1.0000  -5.7124   0.0000   0.0000   0.0000   0.2492
  16.300   1.4749   0.07164   0.06543  -0.0380  0.0459  1.0000  -5.7407   0.0000   0.0000   0.0000   0.2491
  16.400   1.4745   0.07294   0.06676  -0.0381  0.0454  1.0000  -5.7688   0.0000   0.0000   0.0000   0.2489
  16.500   1.4740   0.07424   0.06808  -0.0382  0.0450  1.0000  -5.7971   0.0000   0.0000   0.0000   0.2487
  16.600   1.4734   0.07555   0.06939  -0.0383  0.0446  1.0000  -5.8248   0.0000   0.0000   0.0000   0.2486
  16.700   1.4727   0.07681   0.07063  -0.0383  0.0442  1.0000  -5.8524   0.0000   0.0000   0.0000   0.2484
  16.800   1.4724   0.07816   0.07206  -0.0384  0.0437  1.0000  -5.8777   0.0000   0.0000   0.0000   0.2483
  16.900   1.4721   0.07951   0.07346  -0.0386  0.0432  1.0000  -5.9035   0.0000   0.0000   0.0000   0.2481
  17.000   1.4718   0.08085   0.07484  -0.0388  0.0428  1.0000  -5.9302   0.0000   0.0000   0.0000   0.2480
  17.100   1.4715   0.08218   0.07621  -0.0390  0.0423  1.0000  -5.9575   0.0000   0.0000   0.0000   0.2479
  17.200   1.4713   0.08349   0.07754  -0.0391  0.0419  1.0000  -5.9860   0.0000   0.0000   0.0000   0.2478
  17.300   1.4711   0.08478   0.07884  -0.0393  0.0415  1.0000  -6.0152   0.0000   0.0000   0.0000   0.2477
  17.400   1.4712   0.08601   0.08006  -0.0395  0.0412  1.0000  -6.0463   0.0000   0.0000   0.0000   0.2476
  17.500   1.4718   0.08710   0.08113  -0.0395  0.0408  1.0000  -6.0802   0.0000   0.0000   0.0000   0.2473
  17.600   1.4712   0.08851   0.08259  -0.0397  0.0405  1.0000  -6.1071   0.0000   0.0000   0.0000   0.2473
  17.700   1.4704   0.08998   0.08413  -0.0400  0.0401  1.0000  -6.1359   0.0000   0.0000   0.0000   0.2473
  17.800   1.4699   0.09140   0.08561  -0.0403  0.0397  1.0000  -6.1666   0.0000   0.0000   0.0000   0.2473
  17.900   1.4696   0.09277   0.08702  -0.0406  0.0393  1.0000  -6.1991   0.0000   0.0000   0.0000   0.2472
  18.000   1.4696   0.09409   0.08836  -0.0409  0.0390  1.0000  -6.2334   0.0000   0.0000   0.0000   0.2472
  18.100   1.4697   0.09536   0.08966  -0.0412  0.0386  1.0000  -6.2721   0.0000   0.0000   0.0000   0.2471
  18.200   1.4703   0.09657   0.09087  -0.0414  0.0383  1.0000  -6.3198   0.0000   0.0000   0.0000   0.2470
  18.300   1.4713   0.09766   0.09196  -0.0415  0.0380  1.0000  -6.3717   0.0000   0.0000   0.0000   0.2468
  18.400   1.4733   0.09854   0.09282  -0.0416  0.0378  1.0000  -6.4306   0.0000   0.0000   0.0000   0.2466
  18.500   1.4759   0.09928   0.09353  -0.0414  0.0375  1.0000  -6.4932   0.0000   0.0000   0.0000   0.2462
  18.600   1.4745   0.10089   0.09522  -0.0419  0.0372  1.0000  -6.5243   0.0000   0.0000   0.0000   0.2463
  18.700   1.4737   0.10241   0.09681  -0.0424  0.0370  1.0000  -6.5589   0.0000   0.0000   0.0000   0.2464
  18.800   1.4731   0.10386   0.09832  -0.0428  0.0367  1.0000  -6.5957   0.0000   0.0000   0.0000   0.2465
  18.900   1.4728   0.10525   0.09976  -0.0432  0.0364  1.0000  -6.6353   0.0000   0.0000   0.0000   0.2465
  19.000   1.4729   0.10659   0.10115  -0.0436  0.0362  1.0000  -6.6769   0.0000   0.0000   0.0000   0.2465
  19.100   1.4732   0.10787   0.10246  -0.0440  0.0359  1.0000  -6.7213   0.0000   0.0000   0.0000   0.2465
  19.200   1.4740   0.10905   0.10366  -0.0443  0.0357  1.0000  -6.7697   0.0000   0.0000   0.0000   0.2465
  19.300   1.4754   0.11012   0.10475  -0.0446  0.0354  1.0000  -6.8228   0.0000   0.0000   0.0000   0.2464
  19.400   1.4774   0.11106   0.10569  -0.0448  0.0352  1.0000  -6.8811   0.0000   0.0000   0.0000   0.2462
  19.500   1.4805   0.11178   0.10640  -0.0448  0.0349  1.0000  -6.9481   0.0000   0.0000   0.0000   0.2459
  19.600   1.4859   0.11199   0.10655  -0.0445  0.0346  1.0000  -7.0345   0.0000   0.0000   0.0000   0.2453
  19.700   1.4872   0.11304   0.10763  -0.0447  0.0344  1.0000  -7.0861   0.0000   0.0000   0.0000   0.2452
  19.800   1.4849   0.11488   0.10955  -0.0456  0.0342  1.0000  -7.1072   0.0000   0.0000   0.0000   0.2456
  19.900   1.4830   0.11663   0.11138  -0.0464  0.0340  1.0000  -7.1318   0.0000   0.0000   0.0000   0.2459
  20.000   1.4815   0.11830   0.11312  -0.0471  0.0338  1.0000  -7.1594   0.0000   0.0000   0.0000   0.2462


