xflr5 v6.57

 Calculated polar for: QX0123

 1 1 Reynolds number fixed          Mach number fixed         

 xtrf =   1.000 (top)        1.000 (bottom)
 Mach =   0.000     Re =     0.660 e 6     Ncrit =   9.000

  alpha     CL        CD       CDp       Cm    Top Xtr Bot Xtr   Cpmin    Chinge    XCp    
 ------- -------- --------- --------- -------- ------- ------- -------- --------- ---------
 -10.000  -0.7011   0.02107   0.01600  -0.0824  0.8678  0.0227  -6.2300   0.0000   0.0000   0.0000   0.1193
  -9.900  -0.6911   0.02087   0.01577  -0.0823  0.8663  0.0230  -6.1327   0.0000   0.0000   0.0000   0.1177
  -9.800  -0.6810   0.02072   0.01557  -0.0823  0.8649  0.0233  -6.0342   0.0000   0.0000   0.0000   0.1161
  -9.700  -0.6707   0.02060   0.01542  -0.0822  0.8636  0.0236  -5.9345   0.0000   0.0000   0.0000   0.1144
  -9.600  -0.6601   0.02051   0.01529  -0.0822  0.8622  0.0238  -5.8333   0.0000   0.0000   0.0000   0.1126
  -9.500  -0.6493   0.02042   0.01518  -0.0822  0.8607  0.0240  -5.7312   0.0000   0.0000   0.0000   0.1105
  -9.400  -0.6385   0.02035   0.01508  -0.0822  0.8591  0.0241  -5.6299   0.0000   0.0000   0.0000   0.1084
  -9.300  -0.6315   0.01934   0.01394  -0.0820  0.8576  0.0246  -5.5810   0.0000   0.0000   0.0000   0.1073
  -9.200  -0.6244   0.01835   0.01285  -0.0819  0.8561  0.0252  -5.5296   0.0000   0.0000   0.0000   0.1061
  -9.100  -0.6151   0.01791   0.01236  -0.0818  0.8547  0.0256  -5.4481   0.0000   0.0000   0.0000   0.1044
  -9.000  -0.6053   0.01761   0.01202  -0.0817  0.8534  0.0259  -5.3592   0.0000   0.0000   0.0000   0.1024
  -8.900  -0.5952   0.01737   0.01175  -0.0816  0.8522  0.0262  -5.2675   0.0000   0.0000   0.0000   0.1002
  -8.800  -0.5848   0.01716   0.01152  -0.0816  0.8509  0.0265  -5.1740   0.0000   0.0000   0.0000   0.0979
  -8.700  -0.5742   0.01696   0.01130  -0.0816  0.8494  0.0268  -5.0801   0.0000   0.0000   0.0000   0.0953
  -8.600  -0.5636   0.01676   0.01108  -0.0816  0.8479  0.0270  -4.9871   0.0000   0.0000   0.0000   0.0926
  -8.500  -0.5530   0.01657   0.01086  -0.0816  0.8464  0.0273  -4.8950   0.0000   0.0000   0.0000   0.0899
  -8.400  -0.5425   0.01637   0.01064  -0.0815  0.8450  0.0275  -4.8039   0.0000   0.0000   0.0000   0.0871
  -8.300  -0.5319   0.01617   0.01041  -0.0815  0.8436  0.0278  -4.7139   0.0000   0.0000   0.0000   0.0843
  -8.200  -0.5214   0.01598   0.01018  -0.0814  0.8424  0.0280  -4.6249   0.0000   0.0000   0.0000   0.0813
  -8.100  -0.5110   0.01578   0.00994  -0.0814  0.8411  0.0283  -4.5368   0.0000   0.0000   0.0000   0.0782
  -8.000  -0.5003   0.01558   0.00971  -0.0813  0.8398  0.0285  -4.4558   0.0000   0.0000   0.0000   0.0749
  -7.900  -0.4896   0.01537   0.00948  -0.0813  0.8382  0.0287  -4.3825   0.0000   0.0000   0.0000   0.0713
  -7.800  -0.4788   0.01517   0.00925  -0.0813  0.8366  0.0290  -4.3098   0.0000   0.0000   0.0000   0.0676
  -7.700  -0.4681   0.01496   0.00902  -0.0813  0.8350  0.0292  -4.2378   0.0000   0.0000   0.0000   0.0638
  -7.600  -0.4574   0.01476   0.00878  -0.0812  0.8336  0.0294  -4.1662   0.0000   0.0000   0.0000   0.0598
  -7.500  -0.4467   0.01457   0.00856  -0.0812  0.8323  0.0296  -4.0950   0.0000   0.0000   0.0000   0.0556
  -7.400  -0.4360   0.01438   0.00833  -0.0811  0.8310  0.0298  -4.0243   0.0000   0.0000   0.0000   0.0513
  -7.300  -0.4253   0.01420   0.00812  -0.0810  0.8298  0.0301  -3.9539   0.0000   0.0000   0.0000   0.0467
  -7.200  -0.4145   0.01402   0.00791  -0.0810  0.8284  0.0303  -3.8834   0.0000   0.0000   0.0000   0.0417
  -7.100  -0.4035   0.01384   0.00771  -0.0810  0.8268  0.0305  -3.8129   0.0000   0.0000   0.0000   0.0363
  -7.000  -0.3925   0.01367   0.00751  -0.0810  0.8252  0.0307  -3.7426   0.0000   0.0000   0.0000   0.0306
  -6.900  -0.3815   0.01351   0.00732  -0.0810  0.8237  0.0309  -3.6726   0.0000   0.0000   0.0000   0.0247
  -6.800  -0.3706   0.01335   0.00714  -0.0810  0.8222  0.0311  -3.6027   0.0000   0.0000   0.0000   0.0184
  -6.700  -0.3596   0.01321   0.00697  -0.0809  0.8209  0.0313  -3.5330   0.0000   0.0000   0.0000   0.0117
  -6.600  -0.3485   0.01308   0.00681  -0.0809  0.8196  0.0315  -3.4633   0.0000   0.0000   0.0000   0.0045
  -6.500  -0.3375   0.01296   0.00666  -0.0809  0.8185  0.0316  -3.3937   0.0000   0.0000   0.0000  -0.0031
  -6.400  -0.3271   0.01262   0.00629  -0.0808  0.8171  0.0322  -3.3367   0.0000   0.0000   0.0000  -0.0106
  -6.300  -0.3166   0.01229   0.00594  -0.0808  0.8155  0.0332  -3.2783   0.0000   0.0000   0.0000  -0.0189
  -6.200  -0.3057   0.01208   0.00574  -0.0808  0.8139  0.0341  -3.2123   0.0000   0.0000   0.0000  -0.0282
  -6.100  -0.2946   0.01195   0.00560  -0.0808  0.8124  0.0350  -3.1433   0.0000   0.0000   0.0000  -0.0384
  -6.000  -0.2833   0.01184   0.00548  -0.0808  0.8110  0.0359  -3.0740   0.0000   0.0000   0.0000  -0.0495
  -5.900  -0.2721   0.01174   0.00537  -0.0808  0.8096  0.0370  -3.0057   0.0000   0.0000   0.0000  -0.0615
  -5.800  -0.2609   0.01164   0.00525  -0.0808  0.8083  0.0381  -2.9386   0.0000   0.0000   0.0000  -0.0746
  -5.700  -0.2495   0.01157   0.00515  -0.0808  0.8071  0.0390  -2.8717   0.0000   0.0000   0.0000  -0.0888
  -5.600  -0.2386   0.01136   0.00492  -0.0808  0.8055  0.0407  -2.8122   0.0000   0.0000   0.0000  -0.1039
  -5.500  -0.2275   0.01116   0.00475  -0.0808  0.8038  0.0427  -2.7492   0.0000   0.0000   0.0000  -0.1209
  -5.400  -0.2162   0.01106   0.00465  -0.0808  0.8021  0.0443  -2.6828   0.0000   0.0000   0.0000  -0.1400
  -5.300  -0.2048   0.01097   0.00455  -0.0808  0.8005  0.0459  -2.6169   0.0000   0.0000   0.0000  -0.1613
  -5.200  -0.1934   0.01090   0.00446  -0.0808  0.7990  0.0471  -2.5568   0.0000   0.0000   0.0000  -0.1852
  -5.100  -0.1823   0.01075   0.00430  -0.0808  0.7976  0.0489  -2.5086   0.0000   0.0000   0.0000  -0.2112
  -5.000  -0.1711   0.01064   0.00419  -0.0808  0.7964  0.0507  -2.4570   0.0000   0.0000   0.0000  -0.2409
  -4.900  -0.1597   0.01056   0.00410  -0.0808  0.7951  0.0524  -2.4045   0.0000   0.0000   0.0000  -0.2753
  -4.800  -0.1482   0.01049   0.00403  -0.0809  0.7934  0.0540  -2.3519   0.0000   0.0000   0.0000  -0.3161
  -4.700  -0.1366   0.01043   0.00395  -0.0809  0.7917  0.0553  -2.2995   0.0000   0.0000   0.0000  -0.3636
  -4.600  -0.1254   0.01029   0.00382  -0.0810  0.7900  0.0575  -2.2496   0.0000   0.0000   0.0000  -0.4183
  -4.500  -0.1141   0.01018   0.00373  -0.0810  0.7884  0.0596  -2.1979   0.0000   0.0000   0.0000  -0.4842
  -4.400  -0.1026   0.01010   0.00364  -0.0810  0.7869  0.0618  -2.1463   0.0000   0.0000   0.0000  -0.5652
  -4.200  -0.0800   0.00993   0.00346  -0.0810  0.7843  0.0670  -2.0449   0.0000   0.0000   0.0000  -0.7948
  -4.100  -0.0685   0.00985   0.00339  -0.0811  0.7826  0.0702  -1.9939   0.0000   0.0000   0.0000  -0.9698
  -4.000  -0.0570   0.00976   0.00332  -0.0811  0.7808  0.0736  -1.9434   0.0000   0.0000   0.0000  -1.2154
  -3.900  -0.0455   0.00967   0.00326  -0.0812  0.7790  0.0777  -1.8927   0.0000   0.0000   0.0000  -1.5832
  -3.800  -0.0341   0.00960   0.00319  -0.0812  0.7773  0.0819  -1.8425   0.0000   0.0000   0.0000  -2.1985
  -3.700  -0.0226   0.00952   0.00313  -0.0812  0.7756  0.0865  -1.7924   0.0000   0.0000   0.0000  -3.4348
  -3.600  -0.0112   0.00945   0.00305  -0.0812  0.7742  0.0910  -1.7427   0.0000   0.0000   0.0000  -7.1810
  -3.400   0.0117   0.00930   0.00293  -0.0813  0.7707  0.1005  -1.6441   0.0000   0.0000   0.0000   7.3707
  -3.300   0.0232   0.00922   0.00287  -0.0814  0.7687  0.1056  -1.5951   0.0000   0.0000   0.0000   3.8377
  -3.200   0.0346   0.00914   0.00282  -0.0814  0.7667  0.1113  -1.5465   0.0000   0.0000   0.0000   2.6520
  -3.100   0.0461   0.00907   0.00276  -0.0815  0.7649  0.1172  -1.4982   0.0000   0.0000   0.0000   2.0543
  -3.000   0.0576   0.00901   0.00271  -0.0815  0.7633  0.1234  -1.4503   0.0000   0.0000   0.0000   1.6940
  -2.900   0.0690   0.00896   0.00265  -0.0815  0.7618  0.1300  -1.4027   0.0000   0.0000   0.0000   1.4534
  -2.800   0.0805   0.00888   0.00261  -0.0816  0.7598  0.1370  -1.3556   0.0000   0.0000   0.0000   1.2815
  -2.700   0.0920   0.00879   0.00256  -0.0817  0.7578  0.1449  -1.3088   0.0000   0.0000   0.0000   1.1527
  -2.600   0.1035   0.00871   0.00252  -0.0817  0.7558  0.1540  -1.2625   0.0000   0.0000   0.0000   1.0526
  -2.500   0.1149   0.00863   0.00248  -0.0818  0.7540  0.1647  -1.2166   0.0000   0.0000   0.0000   0.9726
  -2.400   0.1264   0.00855   0.00243  -0.0818  0.7523  0.1766  -1.1711   0.0000   0.0000   0.0000   0.9071
  -2.300   0.1378   0.00849   0.00239  -0.0818  0.7507  0.1883  -1.1261   0.0000   0.0000   0.0000   0.8523
  -2.200   0.1493   0.00841   0.00236  -0.0819  0.7485  0.1998  -1.0814   0.0000   0.0000   0.0000   0.8059
  -2.100   0.1608   0.00833   0.00232  -0.0820  0.7462  0.2110  -1.0371   0.0000   0.0000   0.0000   0.7661
  -2.000   0.1722   0.00826   0.00229  -0.0820  0.7439  0.2228  -0.9932   0.0000   0.0000   0.0000   0.7317
  -1.900   0.1837   0.00819   0.00225  -0.0821  0.7419  0.2356  -0.9499   0.0000   0.0000   0.0000   0.7015
  -1.800   0.1951   0.00813   0.00220  -0.0821  0.7401  0.2486  -0.9069   0.0000   0.0000   0.0000   0.6749
  -1.700   0.2066   0.00806   0.00218  -0.0822  0.7378  0.2621  -0.8643   0.0000   0.0000   0.0000   0.6512
  -1.600   0.2181   0.00798   0.00215  -0.0822  0.7354  0.2768  -0.8222   0.0000   0.0000   0.0000   0.6301
  -1.500   0.2295   0.00789   0.00213  -0.0823  0.7331  0.2933  -0.7806   0.0000   0.0000   0.0000   0.6111
  -1.400   0.2409   0.00781   0.00210  -0.0824  0.7311  0.3119  -0.7499   0.0000   0.0000   0.0000   0.5939
  -1.300   0.2523   0.00774   0.00207  -0.0824  0.7293  0.3318  -0.7209   0.0000   0.0000   0.0000   0.5783
  -1.200   0.2637   0.00765   0.00205  -0.0825  0.7271  0.3531  -0.6921   0.0000   0.0000   0.0000   0.5641
  -1.100   0.2750   0.00755   0.00203  -0.0825  0.7245  0.3773  -0.6636   0.0000   0.0000   0.0000   0.5511
  -1.000   0.2863   0.00744   0.00201  -0.0826  0.7220  0.4057  -0.6417   0.0000   0.0000   0.0000   0.5391
  -0.900   0.2975   0.00732   0.00199  -0.0826  0.7197  0.4385  -0.6496   0.0000   0.0000   0.0000   0.5281
  -0.800   0.3085   0.00721   0.00197  -0.0826  0.7177  0.4733  -0.6575   0.0000   0.0000   0.0000   0.5179
  -0.700   0.3197   0.00709   0.00197  -0.0827  0.7149  0.5100  -0.6654   0.0000   0.0000   0.0000   0.5084
  -0.600   0.3309   0.00698   0.00197  -0.0827  0.7122  0.5436  -0.6735   0.0000   0.0000   0.0000   0.4995
  -0.500   0.3420   0.00689   0.00197  -0.0826  0.7098  0.5758  -0.6824   0.0000   0.0000   0.0000   0.4911
  -0.400   0.3530   0.00680   0.00196  -0.0826  0.7076  0.6065  -0.6912   0.0000   0.0000   0.0000   0.4832
  -0.300   0.3641   0.00672   0.00197  -0.0825  0.7050  0.6369  -0.7002   0.0000   0.0000   0.0000   0.4757
  -0.200   0.3752   0.00665   0.00199  -0.0825  0.7019  0.6636  -0.7091   0.0000   0.0000   0.0000   0.4687
  -0.100   0.3863   0.00660   0.00199  -0.0824  0.6990  0.6867  -0.7194   0.0000   0.0000   0.0000   0.4620
   0.000   0.3973   0.00656   0.00198  -0.0823  0.6964  0.7063  -0.7298   0.0000   0.0000   0.0000   0.4556
   0.100   0.4084   0.00652   0.00200  -0.0822  0.6930  0.7249  -0.7403   0.0000   0.0000   0.0000   0.4497
   0.200   0.4195   0.00648   0.00200  -0.0821  0.6897  0.7425  -0.7508   0.0000   0.0000   0.0000   0.4440
   0.300   0.4305   0.00645   0.00200  -0.0820  0.6866  0.7583  -0.7613   0.0000   0.0000   0.0000   0.4385
   0.400   0.4415   0.00643   0.00201  -0.0819  0.6833  0.7726  -0.7719   0.0000   0.0000   0.0000   0.4334
   0.500   0.4526   0.00640   0.00202  -0.0818  0.6796  0.7863  -0.7824   0.0000   0.0000   0.0000   0.4285
   0.600   0.4634   0.00639   0.00202  -0.0817  0.6762  0.7997  -0.7929   0.0000   0.0000   0.0000   0.4238
   0.700   0.4743   0.00638   0.00203  -0.0815  0.6728  0.8133  -0.8034   0.0000   0.0000   0.0000   0.4193
   0.800   0.4851   0.00635   0.00204  -0.0813  0.6690  0.8263  -0.8139   0.0000   0.0000   0.0000   0.4150
   0.900   0.4958   0.00634   0.00205  -0.0811  0.6656  0.8392  -0.8243   0.0000   0.0000   0.0000   0.4108
   1.000   0.5064   0.00634   0.00206  -0.0809  0.6624  0.8519  -0.8347   0.0000   0.0000   0.0000   0.4068
   1.100   0.5169   0.00632   0.00208  -0.0807  0.6588  0.8648  -0.8457   0.0000   0.0000   0.0000   0.4030
   1.300   0.5371   0.00631   0.00210  -0.0800  0.6521  0.8925  -0.8674   0.0000   0.0000   0.0000   0.3956
   1.400   0.5471   0.00629   0.00212  -0.0796  0.6482  0.9064  -0.8782   0.0000   0.0000   0.0000   0.3920
   1.500   0.5569   0.00629   0.00212  -0.0792  0.6446  0.9210  -0.8890   0.0000   0.0000   0.0000   0.3886
   1.600   0.5671   0.00629   0.00213  -0.0788  0.6410  0.9356  -0.9000   0.0000   0.0000   0.0000   0.3853
   1.700   0.5786   0.00628   0.00214  -0.0787  0.6368  0.9498  -0.9140   0.0000   0.0000   0.0000   0.3823
   1.800   0.5917   0.00630   0.00214  -0.0791  0.6327  0.9629  -0.9292   0.0000   0.0000   0.0000   0.3797
   1.900   0.6066   0.00631   0.00214  -0.0798  0.6281  0.9738  -0.9458   0.0000   0.0000   0.0000   0.3776
   2.000   0.6220   0.00633   0.00214  -0.0807  0.6232  0.9831  -0.9633   0.0000   0.0000   0.0000   0.3756
   2.100   0.6377   0.00636   0.00215  -0.0817  0.6184  0.9915  -0.9810   0.0000   0.0000   0.0000   0.3738
   2.200   0.6537   0.00638   0.00215  -0.0827  0.6130  0.9996  -0.9993   0.0000   0.0000   0.0000   0.3722
   2.300   0.6647   0.00643   0.00216  -0.0827  0.6081  1.0000  -1.0143   0.0000   0.0000   0.0000   0.3700
   2.400   0.6756   0.00647   0.00218  -0.0827  0.6027  1.0000  -1.0292   0.0000   0.0000   0.0000   0.3678
   2.500   0.6864   0.00652   0.00219  -0.0826  0.5977  1.0000  -1.0441   0.0000   0.0000   0.0000   0.3657
   2.600   0.6973   0.00656   0.00222  -0.0826  0.5921  1.0000  -1.0592   0.0000   0.0000   0.0000   0.3636
   2.700   0.7081   0.00662   0.00224  -0.0825  0.5870  1.0000  -1.0742   0.0000   0.0000   0.0000   0.3616
   2.800   0.7192   0.00667   0.00226  -0.0825  0.5814  1.0000  -1.0894   0.0000   0.0000   0.0000   0.3597
   2.900   0.7300   0.00673   0.00229  -0.0824  0.5765  1.0000  -1.1051   0.0000   0.0000   0.0000   0.3578
   3.000   0.7411   0.00677   0.00232  -0.0824  0.5711  1.0000  -1.1216   0.0000   0.0000   0.0000   0.3560
   3.100   0.7519   0.00684   0.00235  -0.0824  0.5661  1.0000  -1.1379   0.0000   0.0000   0.0000   0.3543
   3.200   0.7629   0.00689   0.00238  -0.0824  0.5606  1.0000  -1.1545   0.0000   0.0000   0.0000   0.3526
   3.300   0.7737   0.00696   0.00242  -0.0823  0.5554  1.0000  -1.1709   0.0000   0.0000   0.0000   0.3509
   3.400   0.7847   0.00701   0.00247  -0.0823  0.5497  1.0000  -1.1887   0.0000   0.0000   0.0000   0.3492
   3.500   0.7955   0.00709   0.00251  -0.0822  0.5445  1.0000  -1.2071   0.0000   0.0000   0.0000   0.3476
   3.600   0.8065   0.00714   0.00255  -0.0822  0.5388  1.0000  -1.2258   0.0000   0.0000   0.0000   0.3461
   3.700   0.8172   0.00722   0.00259  -0.0822  0.5334  1.0000  -1.2443   0.0000   0.0000   0.0000   0.3446
   3.800   0.8282   0.00728   0.00264  -0.0821  0.5275  1.0000  -1.2631   0.0000   0.0000   0.0000   0.3431
   3.900   0.8389   0.00736   0.00268  -0.0821  0.5219  1.0000  -1.2817   0.0000   0.0000   0.0000   0.3417
   4.000   0.8498   0.00743   0.00273  -0.0821  0.5159  1.0000  -1.3005   0.0000   0.0000   0.0000   0.3403
   4.100   0.8605   0.00751   0.00278  -0.0820  0.5099  1.0000  -1.3192   0.0000   0.0000   0.0000   0.3389
   4.200   0.8712   0.00759   0.00283  -0.0819  0.5033  1.0000  -1.3408   0.0000   0.0000   0.0000   0.3376
   4.300   0.8819   0.00767   0.00289  -0.0819  0.4967  1.0000  -1.3626   0.0000   0.0000   0.0000   0.3362
   4.500   0.9032   0.00784   0.00300  -0.0818  0.4834  1.0000  -1.4064   0.0000   0.0000   0.0000   0.3337
   4.600   0.9137   0.00793   0.00306  -0.0817  0.4770  1.0000  -1.4282   0.0000   0.0000   0.0000   0.3324
   4.700   0.9243   0.00802   0.00313  -0.0816  0.4703  1.0000  -1.4523   0.0000   0.0000   0.0000   0.3312
   4.800   0.9349   0.00811   0.00319  -0.0815  0.4641  1.0000  -1.4768   0.0000   0.0000   0.0000   0.3300
   4.900   0.9453   0.00822   0.00326  -0.0815  0.4578  1.0000  -1.5012   0.0000   0.0000   0.0000   0.3289
   5.000   0.9560   0.00830   0.00332  -0.0814  0.4512  1.0000  -1.5260   0.0000   0.0000   0.0000   0.3277
   5.100   0.9664   0.00840   0.00339  -0.0813  0.4446  1.0000  -1.5506   0.0000   0.0000   0.0000   0.3266
   5.200   0.9768   0.00851   0.00350  -0.0812  0.4375  1.0000  -1.5753   0.0000   0.0000   0.0000   0.3255
   5.300   0.9872   0.00861   0.00357  -0.0811  0.4304  1.0000  -1.6011   0.0000   0.0000   0.0000   0.3244
   5.400   0.9974   0.00872   0.00365  -0.0810  0.4233  1.0000  -1.6275   0.0000   0.0000   0.0000   0.3233
   5.500   1.0077   0.00883   0.00373  -0.0809  0.4159  1.0000  -1.6541   0.0000   0.0000   0.0000   0.3223
   5.600   1.0181   0.00894   0.00381  -0.0808  0.4089  1.0000  -1.6808   0.0000   0.0000   0.0000   0.3213
   5.700   1.0281   0.00907   0.00390  -0.0807  0.4020  1.0000  -1.7074   0.0000   0.0000   0.0000   0.3202
   5.800   1.0383   0.00918   0.00398  -0.0806  0.3945  1.0000  -1.7355   0.0000   0.0000   0.0000   0.3192
   5.900   1.0485   0.00930   0.00407  -0.0805  0.3871  1.0000  -1.7671   0.0000   0.0000   0.0000   0.3183
   6.000   1.0584   0.00944   0.00417  -0.0803  0.3797  1.0000  -1.7986   0.0000   0.0000   0.0000   0.3173
   6.100   1.0683   0.00957   0.00427  -0.0802  0.3721  1.0000  -1.8302   0.0000   0.0000   0.0000   0.3163
   6.200   1.0784   0.00969   0.00436  -0.0800  0.3644  1.0000  -1.8622   0.0000   0.0000   0.0000   0.3154
   6.300   1.0883   0.00983   0.00446  -0.0799  0.3571  1.0000  -1.8940   0.0000   0.0000   0.0000   0.3144
   6.500   1.1080   0.01009   0.00467  -0.0796  0.3430  1.0000  -1.9664   0.0000   0.0000   0.0000   0.3126
   6.600   1.1178   0.01024   0.00478  -0.0794  0.3360  1.0000  -2.0082   0.0000   0.0000   0.0000   0.3117
   6.800   1.1370   0.01054   0.00501  -0.0790  0.3206  1.0000  -2.0920   0.0000   0.0000   0.0000   0.3099
   6.900   1.1465   0.01069   0.00513  -0.0789  0.3131  1.0000  -2.1341   0.0000   0.0000   0.0000   0.3090
   7.000   1.1558   0.01086   0.00526  -0.0786  0.3055  1.0000  -2.1761   0.0000   0.0000   0.0000   0.3081
   7.100   1.1652   0.01102   0.00539  -0.0784  0.2978  1.0000  -2.2184   0.0000   0.0000   0.0000   0.3073
   7.200   1.1746   0.01118   0.00554  -0.0782  0.2902  1.0000  -2.2672   0.0000   0.0000   0.0000   0.3064
   7.300   1.1839   0.01135   0.00567  -0.0780  0.2828  1.0000  -2.3160   0.0000   0.0000   0.0000   0.3056
   7.400   1.1928   0.01153   0.00582  -0.0777  0.2756  1.0000  -2.3645   0.0000   0.0000   0.0000   0.3047
   7.500   1.2021   0.01169   0.00595  -0.0775  0.2682  1.0000  -2.4142   0.0000   0.0000   0.0000   0.3039
   7.600   1.2111   0.01187   0.00609  -0.0772  0.2613  1.0000  -2.4636   0.0000   0.0000   0.0000   0.3031
   7.700   1.2199   0.01206   0.00625  -0.0769  0.2545  1.0000  -2.5125   0.0000   0.0000   0.0000   0.3022
   7.800   1.2290   0.01223   0.00639  -0.0767  0.2477  1.0000  -2.5627   0.0000   0.0000   0.0000   0.3014
   7.900   1.2379   0.01241   0.00654  -0.0764  0.2415  1.0000  -2.6127   0.0000   0.0000   0.0000   0.3006
   8.100   1.2554   0.01277   0.00684  -0.0758  0.2292  1.0000  -2.7130   0.0000   0.0000   0.0000   0.2990
   8.200   1.2639   0.01297   0.00701  -0.0755  0.2231  1.0000  -2.7628   0.0000   0.0000   0.0000   0.2982
   8.300   1.2723   0.01317   0.00718  -0.0752  0.2165  1.0000  -2.8128   0.0000   0.0000   0.0000   0.2974
   8.400   1.2808   0.01336   0.00734  -0.0748  0.2100  1.0000  -2.8633   0.0000   0.0000   0.0000   0.2966
   8.500   1.2888   0.01358   0.00752  -0.0745  0.2035  1.0000  -2.9129   0.0000   0.0000   0.0000   0.2958
   8.600   1.2969   0.01378   0.00769  -0.0741  0.1968  1.0000  -2.9630   0.0000   0.0000   0.0000   0.2950
   8.700   1.3050   0.01399   0.00787  -0.0737  0.1907  1.0000  -3.0134   0.0000   0.0000   0.0000   0.2942
   8.800   1.3127   0.01422   0.00806  -0.0733  0.1851  1.0000  -3.0627   0.0000   0.0000   0.0000   0.2934
   8.900   1.3208   0.01441   0.00824  -0.0729  0.1795  1.0000  -3.1136   0.0000   0.0000   0.0000   0.2927
   9.000   1.3284   0.01463   0.00843  -0.0725  0.1743  1.0000  -3.1633   0.0000   0.0000   0.0000   0.2919
   9.100   1.3359   0.01485   0.00863  -0.0720  0.1690  1.0000  -3.2131   0.0000   0.0000   0.0000   0.2911
   9.200   1.3428   0.01507   0.00885  -0.0715  0.1644  1.0000  -3.2617   0.0000   0.0000   0.0000   0.2902
   9.300   1.3494   0.01530   0.00905  -0.0708  0.1597  1.0000  -3.3094   0.0000   0.0000   0.0000   0.2894
   9.400   1.3561   0.01552   0.00926  -0.0703  0.1555  1.0000  -3.3578   0.0000   0.0000   0.0000   0.2885
   9.500   1.3627   0.01576   0.00948  -0.0697  0.1513  1.0000  -3.4060   0.0000   0.0000   0.0000   0.2877
   9.600   1.3693   0.01600   0.00971  -0.0691  0.1474  1.0000  -3.4543   0.0000   0.0000   0.0000   0.2869
   9.700   1.3761   0.01624   0.00993  -0.0686  0.1433  1.0000  -3.5035   0.0000   0.0000   0.0000   0.2861
   9.800   1.3824   0.01651   0.01018  -0.0680  0.1396  1.0000  -3.5513   0.0000   0.0000   0.0000   0.2853
   9.900   1.3893   0.01674   0.01042  -0.0675  0.1357  1.0000  -3.6012   0.0000   0.0000   0.0000   0.2845
  10.000   1.3952   0.01704   0.01069  -0.0669  0.1319  1.0000  -3.6483   0.0000   0.0000   0.0000   0.2837
  10.100   1.4021   0.01728   0.01093  -0.0664  0.1281  1.0000  -3.6986   0.0000   0.0000   0.0000   0.2830
  10.200   1.4079   0.01759   0.01122  -0.0659  0.1244  1.0000  -3.7459   0.0000   0.0000   0.0000   0.2822
  10.300   1.4145   0.01785   0.01148  -0.0654  0.1208  1.0000  -3.7956   0.0000   0.0000   0.0000   0.2815
  10.400   1.4203   0.01817   0.01178  -0.0648  0.1172  1.0000  -3.8433   0.0000   0.0000   0.0000   0.2807
  10.500   1.4265   0.01847   0.01207  -0.0643  0.1138  1.0000  -3.8921   0.0000   0.0000   0.0000   0.2800
  10.600   1.4323   0.01879   0.01238  -0.0638  0.1104  1.0000  -3.9400   0.0000   0.0000   0.0000   0.2793
  10.700   1.4380   0.01912   0.01270  -0.0632  0.1073  1.0000  -3.9878   0.0000   0.0000   0.0000   0.2786
  10.800   1.4440   0.01944   0.01302  -0.0627  0.1040  1.0000  -4.0365   0.0000   0.0000   0.0000   0.2779
  10.900   1.4492   0.01982   0.01337  -0.0622  0.1010  1.0000  -4.0829   0.0000   0.0000   0.0000   0.2772
  11.000   1.4551   0.02014   0.01370  -0.0617  0.0980  1.0000  -4.1319   0.0000   0.0000   0.0000   0.2765
  11.100   1.4601   0.02054   0.01408  -0.0611  0.0951  1.0000  -4.1779   0.0000   0.0000   0.0000   0.2758
  11.200   1.4658   0.02088   0.01444  -0.0606  0.0924  1.0000  -4.2265   0.0000   0.0000   0.0000   0.2751
  11.300   1.4710   0.02127   0.01482  -0.0601  0.0897  1.0000  -4.2735   0.0000   0.0000   0.0000   0.2744
  11.400   1.4760   0.02167   0.01521  -0.0596  0.0872  1.0000  -4.3200   0.0000   0.0000   0.0000   0.2737
  11.500   1.4816   0.02203   0.01558  -0.0591  0.0845  1.0000  -4.3686   0.0000   0.0000   0.0000   0.2731
  11.700   1.4915   0.02285   0.01640  -0.0580  0.0796  1.0000  -4.4620   0.0000   0.0000   0.0000   0.2718
  11.800   1.4962   0.02329   0.01683  -0.0575  0.0772  1.0000  -4.5079   0.0000   0.0000   0.0000   0.2711
  11.900   1.5008   0.02373   0.01727  -0.0570  0.0750  1.0000  -4.5537   0.0000   0.0000   0.0000   0.2705
  12.000   1.5057   0.02415   0.01769  -0.0565  0.0727  1.0000  -4.6007   0.0000   0.0000   0.0000   0.2698
  12.200   1.5146   0.02508   0.01862  -0.0555  0.0686  1.0000  -4.6986   0.0000   0.0000   0.0000   0.2686
  12.300   1.5188   0.02556   0.01910  -0.0549  0.0665  1.0000  -4.7470   0.0000   0.0000   0.0000   0.2679
  12.400   1.5227   0.02607   0.01961  -0.0544  0.0647  1.0000  -4.7943   0.0000   0.0000   0.0000   0.2673
  12.500   1.5273   0.02653   0.02008  -0.0539  0.0627  1.0000  -4.8440   0.0000   0.0000   0.0000   0.2667
  12.600   1.5307   0.02708   0.02063  -0.0534  0.0610  1.0000  -4.8900   0.0000   0.0000   0.0000   0.2661
  12.700   1.5349   0.02758   0.02114  -0.0529  0.0592  1.0000  -4.9384   0.0000   0.0000   0.0000   0.2655
  12.800   1.5386   0.02812   0.02169  -0.0524  0.0575  1.0000  -4.9855   0.0000   0.0000   0.0000   0.2649
  13.000   1.5455   0.02925   0.02283  -0.0514  0.0545  1.0000  -5.0777   0.0000   0.0000   0.0000   0.2637
  13.100   1.5487   0.02984   0.02342  -0.0509  0.0530  1.0000  -5.1231   0.0000   0.0000   0.0000   0.2631
  13.200   1.5511   0.03050   0.02410  -0.0503  0.0517  1.0000  -5.1653   0.0000   0.0000   0.0000   0.2625
  13.300   1.5550   0.03104   0.02466  -0.0499  0.0503  1.0000  -5.2133   0.0000   0.0000   0.0000   0.2619
  13.400   1.5580   0.03166   0.02529  -0.0494  0.0490  1.0000  -5.2578   0.0000   0.0000   0.0000   0.2614
  13.600   1.5634   0.03296   0.02662  -0.0485  0.0467  1.0000  -5.3449   0.0000   0.0000   0.0000   0.2602
  13.700   1.5661   0.03362   0.02729  -0.0480  0.0456  1.0000  -5.3884   0.0000   0.0000   0.0000   0.2597
  13.800   1.5679   0.03436   0.02803  -0.0475  0.0447  1.0000  -5.4290   0.0000   0.0000   0.0000   0.2591
  13.900   1.5700   0.03508   0.02877  -0.0470  0.0437  1.0000  -5.4699   0.0000   0.0000   0.0000   0.2586
  14.000   1.5728   0.03575   0.02946  -0.0466  0.0427  1.0000  -5.5138   0.0000   0.0000   0.0000   0.2581
  14.100   1.5749   0.03649   0.03022  -0.0462  0.0419  1.0000  -5.5549   0.0000   0.0000   0.0000   0.2576
  14.200   1.5760   0.03731   0.03105  -0.0457  0.0411  1.0000  -5.5928   0.0000   0.0000   0.0000   0.2570
  14.300   1.5774   0.03812   0.03188  -0.0453  0.0404  1.0000  -5.6307   0.0000   0.0000   0.0000   0.2565
  14.400   1.5798   0.03884   0.03263  -0.0449  0.0396  1.0000  -5.6735   0.0000   0.0000   0.0000   0.2560
  14.500   1.5815   0.03964   0.03345  -0.0446  0.0389  1.0000  -5.7166   0.0000   0.0000   0.0000   0.2555
  14.600   1.5826   0.04050   0.03433  -0.0442  0.0383  1.0000  -5.7573   0.0000   0.0000   0.0000   0.2551
  14.700   1.5828   0.04147   0.03531  -0.0438  0.0377  1.0000  -5.7940   0.0000   0.0000   0.0000   0.2546
  14.800   1.5838   0.04237   0.03624  -0.0434  0.0372  1.0000  -5.8339   0.0000   0.0000   0.0000   0.2542
  14.900   1.5857   0.04320   0.03710  -0.0432  0.0365  1.0000  -5.8773   0.0000   0.0000   0.0000   0.2537
  15.000   1.5871   0.04409   0.03802  -0.0429  0.0360  1.0000  -5.9190   0.0000   0.0000   0.0000   0.2533
  15.100   1.5877   0.04507   0.03901  -0.0426  0.0355  1.0000  -5.9578   0.0000   0.0000   0.0000   0.2529
  15.200   1.5877   0.04612   0.04009  -0.0423  0.0350  1.0000  -5.9936   0.0000   0.0000   0.0000   0.2525
  15.300   1.5865   0.04732   0.04131  -0.0421  0.0346  1.0000  -6.0238   0.0000   0.0000   0.0000   0.2521
  15.400   1.5874   0.04831   0.04233  -0.0418  0.0342  1.0000  -6.0626   0.0000   0.0000   0.0000   0.2518
  15.500   1.5888   0.04925   0.04332  -0.0417  0.0337  1.0000  -6.1039   0.0000   0.0000   0.0000   0.2514
  15.600   1.5897   0.05026   0.04436  -0.0415  0.0332  1.0000  -6.1432   0.0000   0.0000   0.0000   0.2511
  15.700   1.5902   0.05132   0.04545  -0.0413  0.0328  1.0000  -6.1810   0.0000   0.0000   0.0000   0.2507
  15.800   1.5900   0.05248   0.04663  -0.0412  0.0324  1.0000  -6.2155   0.0000   0.0000   0.0000   0.2504
  15.900   1.5891   0.05373   0.04790  -0.0411  0.0321  1.0000  -6.2466   0.0000   0.0000   0.0000   0.2501
  16.000   1.5871   0.05511   0.04930  -0.0410  0.0318  1.0000  -6.2727   0.0000   0.0000   0.0000   0.2499
  16.100   1.5860   0.05642   0.05064  -0.0409  0.0316  1.0000  -6.3019   0.0000   0.0000   0.0000   0.2496
  16.200   1.5866   0.05752   0.05179  -0.0409  0.0312  1.0000  -6.3553   0.0000   0.0000   0.0000   0.2493
  16.300   1.5866   0.05872   0.05302  -0.0409  0.0309  1.0000  -6.4052   0.0000   0.0000   0.0000   0.2491
  16.400   1.5863   0.05995   0.05430  -0.0409  0.0306  1.0000  -6.4533   0.0000   0.0000   0.0000   0.2489
  16.500   1.5857   0.06124   0.05562  -0.0409  0.0303  1.0000  -6.4996   0.0000   0.0000   0.0000   0.2486
  16.600   1.5848   0.06258   0.05698  -0.0409  0.0300  1.0000  -6.5443   0.0000   0.0000   0.0000   0.2484
  16.700   1.5835   0.06398   0.05841  -0.0410  0.0298  1.0000  -6.5863   0.0000   0.0000   0.0000   0.2483
  16.800   1.5814   0.06548   0.05994  -0.0411  0.0296  1.0000  -6.6239   0.0000   0.0000   0.0000   0.2481
  16.900   1.5788   0.06707   0.06156  -0.0412  0.0294  1.0000  -6.6575   0.0000   0.0000   0.0000   0.2480
  17.000   1.5754   0.06877   0.06329  -0.0414  0.0292  1.0000  -6.6861   0.0000   0.0000   0.0000   0.2479
  17.100   1.5718   0.07051   0.06506  -0.0416  0.0290  1.0000  -6.7128   0.0000   0.0000   0.0000   0.2479
  17.200   1.5713   0.07186   0.06646  -0.0417  0.0288  1.0000  -6.7587   0.0000   0.0000   0.0000   0.2477
  17.300   1.5704   0.07328   0.06793  -0.0419  0.0286  1.0000  -6.8017   0.0000   0.0000   0.0000   0.2476
  17.400   1.5689   0.07479   0.06947  -0.0421  0.0284  1.0000  -6.8415   0.0000   0.0000   0.0000   0.2475
  17.500   1.5672   0.07632   0.07105  -0.0423  0.0282  1.0000  -6.8798   0.0000   0.0000   0.0000   0.2475
  17.600   1.5653   0.07790   0.07267  -0.0426  0.0280  1.0000  -6.9163   0.0000   0.0000   0.0000   0.2474
  17.700   1.5631   0.07952   0.07433  -0.0429  0.0278  1.0000  -6.9511   0.0000   0.0000   0.0000   0.2474
  17.800   1.5608   0.08117   0.07601  -0.0432  0.0276  1.0000  -6.9850   0.0000   0.0000   0.0000   0.2474
  17.900   1.5582   0.08286   0.07774  -0.0435  0.0274  1.0000  -7.0170   0.0000   0.0000   0.0000   0.2474
  18.000   1.5555   0.08459   0.07951  -0.0439  0.0273  1.0000  -7.0476   0.0000   0.0000   0.0000   0.2475
  18.100   1.5525   0.08636   0.08131  -0.0443  0.0271  1.0000  -7.0768   0.0000   0.0000   0.0000   0.2475
  18.200   1.5491   0.08820   0.08318  -0.0447  0.0270  1.0000  -7.1023   0.0000   0.0000   0.0000   0.2476
  18.300   1.5454   0.09009   0.08510  -0.0452  0.0269  1.0000  -7.1251   0.0000   0.0000   0.0000   0.2477
  18.400   1.5413   0.09204   0.08707  -0.0457  0.0267  1.0000  -7.1450   0.0000   0.0000   0.0000   0.2479
  18.500   1.5367   0.09407   0.08913  -0.0462  0.0266  1.0000  -7.1611   0.0000   0.0000   0.0000   0.2481
  18.600   1.5341   0.09583   0.09093  -0.0467  0.0265  1.0000  -7.1903   0.0000   0.0000   0.0000   0.2482
  18.700   1.5322   0.09751   0.09266  -0.0472  0.0263  1.0000  -7.2237   0.0000   0.0000   0.0000   0.2483
  18.800   1.5300   0.09923   0.09443  -0.0477  0.0262  1.0000  -7.2553   0.0000   0.0000   0.0000   0.2484
  18.900   1.5278   0.10096   0.09620  -0.0482  0.0260  1.0000  -7.2862   0.0000   0.0000   0.0000   0.2485
  19.000   1.5254   0.10272   0.09800  -0.0488  0.0258  1.0000  -7.3155   0.0000   0.0000   0.0000   0.2487
  19.100   1.5230   0.10448   0.09979  -0.0493  0.0257  1.0000  -7.3451   0.0000   0.0000   0.0000   0.2489
  19.200   1.5206   0.10627   0.10162  -0.0500  0.0255  1.0000  -7.3734   0.0000   0.0000   0.0000   0.2491
  19.300   1.5182   0.10804   0.10342  -0.0506  0.0254  1.0000  -7.4026   0.0000   0.0000   0.0000   0.2493
  19.400   1.5157   0.10984   0.10526  -0.0512  0.0252  1.0000  -7.4300   0.0000   0.0000   0.0000   0.2495
  19.500   1.5134   0.11162   0.10707  -0.0519  0.0251  1.0000  -7.4587   0.0000   0.0000   0.0000   0.2498
  19.600   1.5109   0.11343   0.10891  -0.0526  0.0250  1.0000  -7.4855   0.0000   0.0000   0.0000   0.2500
  19.700   1.5086   0.11522   0.11072  -0.0533  0.0248  1.0000  -7.5130   0.0000   0.0000   0.0000   0.2503
  19.800   1.5060   0.11703   0.11256  -0.0540  0.0247  1.0000  -7.5388   0.0000   0.0000   0.0000   0.2506
  19.900   1.5036   0.11883   0.11438  -0.0548  0.0246  1.0000  -7.5650   0.0000   0.0000   0.0000   0.2509
  20.000   1.5010   0.12064   0.11621  -0.0555  0.0245  1.0000  -7.5893   0.0000   0.0000   0.0000   0.2512


