xflr5 v6.57

 Calculated polar for: QX0123

 1 1 Reynolds number fixed          Mach number fixed         

 xtrf =   1.000 (top)        1.000 (bottom)
 Mach =   0.000     Re =     0.340 e 6     Ncrit =   9.000

  alpha     CL        CD       CDp       Cm    Top Xtr Bot Xtr   Cpmin    Chinge    XCp    
 ------- -------- --------- --------- -------- ------- ------- -------- --------- ---------
 -10.000  -0.5985   0.03705   0.03295  -0.0922  0.9271  0.0307  -5.0959   0.0000   0.0000   0.0000   0.0821
  -9.900  -0.5973   0.03560   0.03131  -0.0924  0.9237  0.0309  -5.0975   0.0000   0.0000   0.0000   0.0815
  -9.800  -0.5950   0.03439   0.02993  -0.0924  0.9208  0.0311  -5.0866   0.0000   0.0000   0.0000   0.0811
  -9.700  -0.5917   0.03336   0.02872  -0.0921  0.9184  0.0313  -5.0662   0.0000   0.0000   0.0000   0.0807
  -9.600  -0.5871   0.03251   0.02771  -0.0919  0.9162  0.0315  -5.0341   0.0000   0.0000   0.0000   0.0800
  -9.500  -0.5805   0.03191   0.02697  -0.0918  0.9136  0.0317  -4.9846   0.0000   0.0000   0.0000   0.0783
  -9.400  -0.5828   0.02910   0.02385  -0.0917  0.9108  0.0321  -5.0413   0.0000   0.0000   0.0000   0.0792
  -9.300  -0.5786   0.02770   0.02233  -0.0915  0.9087  0.0326  -5.0162   0.0000   0.0000   0.0000   0.0786
  -9.200  -0.5718   0.02700   0.02157  -0.0912  0.9070  0.0330  -4.9556   0.0000   0.0000   0.0000   0.0772
  -9.100  -0.5634   0.02652   0.02106  -0.0911  0.9051  0.0334  -4.8820   0.0000   0.0000   0.0000   0.0751
  -9.000  -0.5544   0.02612   0.02063  -0.0911  0.9030  0.0338  -4.8045   0.0000   0.0000   0.0000   0.0725
  -8.900  -0.5456   0.02575   0.02021  -0.0910  0.9011  0.0342  -4.7284   0.0000   0.0000   0.0000   0.0701
  -8.800  -0.5369   0.02536   0.01976  -0.0908  0.8992  0.0346  -4.6547   0.0000   0.0000   0.0000   0.0677
  -8.700  -0.5283   0.02497   0.01930  -0.0906  0.8976  0.0350  -4.5832   0.0000   0.0000   0.0000   0.0654
  -8.600  -0.5196   0.02458   0.01885  -0.0903  0.8962  0.0354  -4.5117   0.0000   0.0000   0.0000   0.0630
  -8.500  -0.5103   0.02417   0.01837  -0.0903  0.8944  0.0358  -4.4398   0.0000   0.0000   0.0000   0.0600
  -8.400  -0.5009   0.02374   0.01787  -0.0902  0.8924  0.0362  -4.3687   0.0000   0.0000   0.0000   0.0568
  -8.300  -0.4916   0.02330   0.01735  -0.0901  0.8905  0.0365  -4.2990   0.0000   0.0000   0.0000   0.0536
  -8.200  -0.4824   0.02288   0.01685  -0.0899  0.8887  0.0369  -4.2300   0.0000   0.0000   0.0000   0.0504
  -8.100  -0.4732   0.02246   0.01635  -0.0897  0.8872  0.0372  -4.1613   0.0000   0.0000   0.0000   0.0472
  -8.000  -0.4639   0.02206   0.01586  -0.0895  0.8858  0.0376  -4.0925   0.0000   0.0000   0.0000   0.0440
  -7.900  -0.4544   0.02168   0.01540  -0.0893  0.8843  0.0379  -4.0239   0.0000   0.0000   0.0000   0.0403
  -7.800  -0.4442   0.02130   0.01495  -0.0893  0.8823  0.0382  -3.9674   0.0000   0.0000   0.0000   0.0358
  -7.700  -0.4342   0.02094   0.01452  -0.0892  0.8803  0.0384  -3.9106   0.0000   0.0000   0.0000   0.0313
  -7.600  -0.4243   0.02061   0.01412  -0.0890  0.8785  0.0387  -3.8533   0.0000   0.0000   0.0000   0.0268
  -7.500  -0.4144   0.02031   0.01375  -0.0888  0.8769  0.0389  -3.7955   0.0000   0.0000   0.0000   0.0222
  -7.400  -0.4045   0.02003   0.01340  -0.0886  0.8755  0.0391  -3.7369   0.0000   0.0000   0.0000   0.0174
  -7.300  -0.3946   0.01978   0.01307  -0.0884  0.8742  0.0393  -3.6778   0.0000   0.0000   0.0000   0.0125
  -7.200  -0.3846   0.01927   0.01251  -0.0883  0.8723  0.0396  -3.6265   0.0000   0.0000   0.0000   0.0067
  -7.100  -0.3752   0.01857   0.01177  -0.0882  0.8703  0.0402  -3.5813   0.0000   0.0000   0.0000   0.0011
  -7.000  -0.3655   0.01811   0.01129  -0.0881  0.8685  0.0407  -3.5261   0.0000   0.0000   0.0000  -0.0049
  -6.900  -0.3555   0.01780   0.01097  -0.0880  0.8669  0.0413  -3.4639   0.0000   0.0000   0.0000  -0.0114
  -6.800  -0.3453   0.01758   0.01074  -0.0878  0.8654  0.0419  -3.3986   0.0000   0.0000   0.0000  -0.0184
  -6.700  -0.3351   0.01740   0.01054  -0.0876  0.8641  0.0426  -3.3331   0.0000   0.0000   0.0000  -0.0258
  -6.600  -0.3248   0.01723   0.01034  -0.0875  0.8629  0.0434  -3.2688   0.0000   0.0000   0.0000  -0.0336
  -6.500  -0.3139   0.01704   0.01015  -0.0875  0.8607  0.0442  -3.2049   0.0000   0.0000   0.0000  -0.0433
  -6.400  -0.3032   0.01685   0.00992  -0.0875  0.8587  0.0450  -3.1437   0.0000   0.0000   0.0000  -0.0531
  -6.300  -0.2926   0.01664   0.00967  -0.0873  0.8570  0.0459  -3.0848   0.0000   0.0000   0.0000  -0.0634
  -6.200  -0.2821   0.01644   0.00942  -0.0872  0.8553  0.0467  -3.0274   0.0000   0.0000   0.0000  -0.0743
  -6.100  -0.2715   0.01627   0.00920  -0.0870  0.8539  0.0473  -2.9702   0.0000   0.0000   0.0000  -0.0859
  -6.000  -0.2622   0.01575   0.00869  -0.0867  0.8526  0.0486  -2.9229   0.0000   0.0000   0.0000  -0.0965
  -5.900  -0.2519   0.01550   0.00845  -0.0866  0.8512  0.0498  -2.8637   0.0000   0.0000   0.0000  -0.1098
  -5.800  -0.2410   0.01533   0.00830  -0.0867  0.8491  0.0511  -2.8022   0.0000   0.0000   0.0000  -0.1259
  -5.700  -0.2302   0.01518   0.00813  -0.0866  0.8472  0.0526  -2.7425   0.0000   0.0000   0.0000  -0.1430
  -5.600  -0.2193   0.01503   0.00794  -0.0865  0.8455  0.0543  -2.6841   0.0000   0.0000   0.0000  -0.1616
  -5.500  -0.2085   0.01489   0.00775  -0.0864  0.8439  0.0557  -2.6266   0.0000   0.0000   0.0000  -0.1820
  -5.400  -0.1986   0.01455   0.00745  -0.0862  0.8425  0.0577  -2.5711   0.0000   0.0000   0.0000  -0.2023
  -5.300  -0.1879   0.01441   0.00730  -0.0861  0.8413  0.0595  -2.5103   0.0000   0.0000   0.0000  -0.2267
  -5.200  -0.1771   0.01429   0.00716  -0.0860  0.8398  0.0615  -2.4502   0.0000   0.0000   0.0000  -0.2551
  -5.100  -0.1658   0.01419   0.00703  -0.0860  0.8376  0.0633  -2.4048   0.0000   0.0000   0.0000  -0.2889
  -5.000  -0.1554   0.01395   0.00682  -0.0860  0.8356  0.0654  -2.3612   0.0000   0.0000   0.0000  -0.3244
  -4.900  -0.1445   0.01381   0.00670  -0.0859  0.8338  0.0675  -2.3133   0.0000   0.0000   0.0000  -0.3663
  -4.800  -0.1336   0.01370   0.00657  -0.0858  0.8323  0.0698  -2.2663   0.0000   0.0000   0.0000  -0.4152
  -4.600  -0.1122   0.01341   0.00626  -0.0856  0.8296  0.0745  -2.1739   0.0000   0.0000   0.0000  -0.5386
  -4.500  -0.1010   0.01332   0.00618  -0.0856  0.8275  0.0772  -2.1256   0.0000   0.0000   0.0000  -0.6250
  -4.400  -0.0898   0.01324   0.00608  -0.0856  0.8254  0.0802  -2.0790   0.0000   0.0000   0.0000  -0.7336
  -4.300  -0.0790   0.01308   0.00596  -0.0856  0.8236  0.0833  -2.0315   0.0000   0.0000   0.0000  -0.8669
  -4.200  -0.0679   0.01299   0.00585  -0.0855  0.8219  0.0871  -1.9843   0.0000   0.0000   0.0000  -1.0477
  -4.100  -0.0570   0.01284   0.00572  -0.0854  0.8204  0.0909  -1.9377   0.0000   0.0000   0.0000  -1.2916
  -4.000  -0.0460   0.01273   0.00560  -0.0853  0.8191  0.0955  -1.8907   0.0000   0.0000   0.0000  -1.6566
  -3.900  -0.0352   0.01259   0.00548  -0.0852  0.8178  0.1002  -1.8439   0.0000   0.0000   0.0000  -2.2376
  -3.800  -0.0241   0.01249   0.00540  -0.0853  0.8154  0.1060  -1.7965   0.0000   0.0000   0.0000  -3.3917
  -3.700  -0.0130   0.01239   0.00534  -0.0853  0.8133  0.1122  -1.7487   0.0000   0.0000   0.0000  -6.4976
  -3.600  -0.0019   0.01229   0.00527  -0.0853  0.8114  0.1189  -1.7010   0.0000   0.0000   0.0000  -45.4235
  -3.500   0.0092   0.01219   0.00518  -0.0852  0.8098  0.1260  -1.6538   0.0000   0.0000   0.0000   9.7843
  -3.400   0.0202   0.01208   0.00509  -0.0852  0.8084  0.1333  -1.6071   0.0000   0.0000   0.0000   4.5639
  -3.300   0.0312   0.01197   0.00499  -0.0851  0.8071  0.1409  -1.5607   0.0000   0.0000   0.0000   3.0365
  -3.200   0.0423   0.01187   0.00493  -0.0851  0.8050  0.1489  -1.5145   0.0000   0.0000   0.0000   2.3051
  -3.100   0.0534   0.01177   0.00487  -0.0852  0.8027  0.1573  -1.4686   0.0000   0.0000   0.0000   1.8772
  -3.000   0.0645   0.01166   0.00480  -0.0851  0.8007  0.1664  -1.4229   0.0000   0.0000   0.0000   1.5959
  -2.900   0.0757   0.01156   0.00473  -0.0851  0.7989  0.1764  -1.3774   0.0000   0.0000   0.0000   1.3966
  -2.800   0.0868   0.01146   0.00465  -0.0851  0.7973  0.1874  -1.3321   0.0000   0.0000   0.0000   1.2481
  -2.700   0.0979   0.01135   0.00456  -0.0850  0.7959  0.1987  -1.2872   0.0000   0.0000   0.0000   1.1337
  -2.600   0.1090   0.01125   0.00451  -0.0850  0.7938  0.2112  -1.2426   0.0000   0.0000   0.0000   1.0431
  -2.500   0.1201   0.01116   0.00448  -0.0850  0.7913  0.2244  -1.1984   0.0000   0.0000   0.0000   0.9694
  -2.400   0.1312   0.01105   0.00442  -0.0850  0.7892  0.2391  -1.1544   0.0000   0.0000   0.0000   0.9079
  -2.300   0.1423   0.01095   0.00436  -0.0850  0.7873  0.2549  -1.1107   0.0000   0.0000   0.0000   0.8558
  -2.200   0.1534   0.01083   0.00429  -0.0849  0.7857  0.2718  -1.0673   0.0000   0.0000   0.0000   0.8112
  -2.100   0.1645   0.01071   0.00422  -0.0849  0.7843  0.2903  -1.0243   0.0000   0.0000   0.0000   0.7727
  -2.000   0.1755   0.01061   0.00420  -0.0849  0.7818  0.3113  -0.9820   0.0000   0.0000   0.0000   0.7397
  -1.900   0.1865   0.01049   0.00418  -0.0850  0.7794  0.3342  -0.9400   0.0000   0.0000   0.0000   0.7105
  -1.800   0.1975   0.01036   0.00413  -0.0849  0.7774  0.3589  -0.8984   0.0000   0.0000   0.0000   0.6845
  -1.700   0.2085   0.01022   0.00408  -0.0849  0.7756  0.3870  -0.8572   0.0000   0.0000   0.0000   0.6611
  -1.600   0.2193   0.01007   0.00403  -0.0848  0.7740  0.4179  -0.8165   0.0000   0.0000   0.0000   0.6401
  -1.500   0.2301   0.00993   0.00399  -0.0848  0.7723  0.4525  -0.7763   0.0000   0.0000   0.0000   0.6211
  -1.400   0.2407   0.00979   0.00400  -0.0847  0.7694  0.4895  -0.7471   0.0000   0.0000   0.0000   0.6043
  -1.300   0.2513   0.00964   0.00398  -0.0846  0.7670  0.5279  -0.7193   0.0000   0.0000   0.0000   0.5885
  -1.200   0.2619   0.00950   0.00396  -0.0844  0.7649  0.5657  -0.6916   0.0000   0.0000   0.0000   0.5739
  -1.100   0.2724   0.00937   0.00393  -0.0841  0.7631  0.6005  -0.6640   0.0000   0.0000   0.0000   0.5602
  -1.000   0.2829   0.00926   0.00391  -0.0839  0.7613  0.6355  -0.6367   0.0000   0.0000   0.0000   0.5475
  -0.900   0.2931   0.00917   0.00395  -0.0836  0.7582  0.6676  -0.6436   0.0000   0.0000   0.0000   0.5360
  -0.800   0.3035   0.00909   0.00395  -0.0833  0.7557  0.6962  -0.6512   0.0000   0.0000   0.0000   0.5250
  -0.700   0.3139   0.00901   0.00394  -0.0830  0.7536  0.7202  -0.6588   0.0000   0.0000   0.0000   0.5147
  -0.600   0.3244   0.00895   0.00391  -0.0827  0.7518  0.7414  -0.6672   0.0000   0.0000   0.0000   0.5048
  -0.500   0.3349   0.00890   0.00390  -0.0824  0.7497  0.7608  -0.6758   0.0000   0.0000   0.0000   0.4957
  -0.400   0.3452   0.00886   0.00392  -0.0821  0.7467  0.7787  -0.6842   0.0000   0.0000   0.0000   0.4873
  -0.300   0.3554   0.00881   0.00391  -0.0817  0.7441  0.7960  -0.6927   0.0000   0.0000   0.0000   0.4792
  -0.200   0.3657   0.00876   0.00389  -0.0813  0.7419  0.8128  -0.7012   0.0000   0.0000   0.0000   0.4715
  -0.100   0.3759   0.00872   0.00385  -0.0809  0.7400  0.8284  -0.7106   0.0000   0.0000   0.0000   0.4641
   0.000   0.3859   0.00869   0.00387  -0.0805  0.7371  0.8428  -0.7204   0.0000   0.0000   0.0000   0.4573
   0.100   0.3958   0.00865   0.00387  -0.0800  0.7342  0.8567  -0.7302   0.0000   0.0000   0.0000   0.4508
   0.200   0.4057   0.00862   0.00384  -0.0796  0.7317  0.8709  -0.7400   0.0000   0.0000   0.0000   0.4445
   0.300   0.4156   0.00858   0.00381  -0.0790  0.7296  0.8851  -0.7499   0.0000   0.0000   0.0000   0.4384
   0.400   0.4253   0.00855   0.00380  -0.0785  0.7270  0.8996  -0.7597   0.0000   0.0000   0.0000   0.4327
   0.500   0.4353   0.00853   0.00380  -0.0781  0.7238  0.9144  -0.7696   0.0000   0.0000   0.0000   0.4272
   0.700   0.4590   0.00846   0.00371  -0.0779  0.7187  0.9428  -0.7918   0.0000   0.0000   0.0000   0.4173
   0.800   0.4733   0.00844   0.00369  -0.0784  0.7154  0.9561  -0.8043   0.0000   0.0000   0.0000   0.4131
   0.900   0.4892   0.00842   0.00366  -0.0793  0.7118  0.9679  -0.8179   0.0000   0.0000   0.0000   0.4093
   1.000   0.5061   0.00839   0.00360  -0.0804  0.7089  0.9783  -0.8322   0.0000   0.0000   0.0000   0.4059
   1.100   0.5238   0.00837   0.00355  -0.0816  0.7060  0.9872  -0.8477   0.0000   0.0000   0.0000   0.4029
   1.200   0.5420   0.00836   0.00353  -0.0831  0.7018  0.9948  -0.8635   0.0000   0.0000   0.0000   0.4003
   1.300   0.5587   0.00834   0.00348  -0.0843  0.6983  1.0000  -0.8786   0.0000   0.0000   0.0000   0.3977
   1.400   0.5688   0.00834   0.00344  -0.0841  0.6952  1.0000  -0.8894   0.0000   0.0000   0.0000   0.3945
   1.500   0.5788   0.00835   0.00344  -0.0839  0.6910  1.0000  -0.9002   0.0000   0.0000   0.0000   0.3915
   1.600   0.5892   0.00836   0.00342  -0.0837  0.6875  1.0000  -0.9132   0.0000   0.0000   0.0000   0.3886
   1.700   0.5998   0.00837   0.00339  -0.0836  0.6844  1.0000  -0.9265   0.0000   0.0000   0.0000   0.3857
   1.800   0.6102   0.00839   0.00341  -0.0835  0.6803  1.0000  -0.9398   0.0000   0.0000   0.0000   0.3831
   1.900   0.6209   0.00841   0.00339  -0.0834  0.6768  1.0000  -0.9534   0.0000   0.0000   0.0000   0.3804
   2.000   0.6318   0.00843   0.00338  -0.0833  0.6737  1.0000  -0.9676   0.0000   0.0000   0.0000   0.3779
   2.100   0.6424   0.00845   0.00340  -0.0832  0.6694  1.0000  -0.9816   0.0000   0.0000   0.0000   0.3754
   2.200   0.6532   0.00847   0.00340  -0.0831  0.6658  1.0000  -0.9959   0.0000   0.0000   0.0000   0.3731
   2.300   0.6641   0.00850   0.00339  -0.0831  0.6621  1.0000  -1.0106   0.0000   0.0000   0.0000   0.3707
   2.400   0.6749   0.00853   0.00341  -0.0830  0.6576  1.0000  -1.0254   0.0000   0.0000   0.0000   0.3685
   2.500   0.6858   0.00856   0.00340  -0.0829  0.6539  1.0000  -1.0404   0.0000   0.0000   0.0000   0.3663
   2.600   0.6966   0.00859   0.00342  -0.0828  0.6493  1.0000  -1.0553   0.0000   0.0000   0.0000   0.3643
   2.700   0.7074   0.00862   0.00343  -0.0828  0.6448  1.0000  -1.0704   0.0000   0.0000   0.0000   0.3622
   2.800   0.7183   0.00865   0.00343  -0.0827  0.6404  1.0000  -1.0855   0.0000   0.0000   0.0000   0.3602
   2.900   0.7291   0.00868   0.00345  -0.0826  0.6352  1.0000  -1.1008   0.0000   0.0000   0.0000   0.3583
   3.000   0.7399   0.00872   0.00345  -0.0825  0.6309  1.0000  -1.1171   0.0000   0.0000   0.0000   0.3564
   3.100   0.7507   0.00876   0.00348  -0.0824  0.6253  1.0000  -1.1334   0.0000   0.0000   0.0000   0.3546
   3.200   0.7615   0.00880   0.00348  -0.0823  0.6207  1.0000  -1.1498   0.0000   0.0000   0.0000   0.3528
   3.300   0.7722   0.00884   0.00352  -0.0823  0.6148  1.0000  -1.1661   0.0000   0.0000   0.0000   0.3511
   3.400   0.7830   0.00890   0.00355  -0.0821  0.6100  1.0000  -1.1833   0.0000   0.0000   0.0000   0.3494
   3.500   0.7937   0.00894   0.00359  -0.0821  0.6044  1.0000  -1.2017   0.0000   0.0000   0.0000   0.3477
   3.600   0.8045   0.00900   0.00361  -0.0820  0.5996  1.0000  -1.2201   0.0000   0.0000   0.0000   0.3461
   3.700   0.8152   0.00905   0.00365  -0.0819  0.5941  1.0000  -1.2386   0.0000   0.0000   0.0000   0.3446
   3.800   0.8259   0.00911   0.00368  -0.0818  0.5891  1.0000  -1.2571   0.0000   0.0000   0.0000   0.3431
   3.900   0.8366   0.00917   0.00373  -0.0817  0.5836  1.0000  -1.2757   0.0000   0.0000   0.0000   0.3416
   4.000   0.8472   0.00924   0.00376  -0.0816  0.5784  1.0000  -1.2943   0.0000   0.0000   0.0000   0.3401
   4.100   0.8579   0.00930   0.00381  -0.0815  0.5726  1.0000  -1.3130   0.0000   0.0000   0.0000   0.3387
   4.200   0.8684   0.00937   0.00385  -0.0814  0.5672  1.0000  -1.3340   0.0000   0.0000   0.0000   0.3373
   4.300   0.8790   0.00944   0.00391  -0.0813  0.5613  1.0000  -1.3556   0.0000   0.0000   0.0000   0.3360
   4.400   0.8895   0.00952   0.00395  -0.0812  0.5560  1.0000  -1.3772   0.0000   0.0000   0.0000   0.3346
   4.500   0.9001   0.00959   0.00402  -0.0811  0.5498  1.0000  -1.3990   0.0000   0.0000   0.0000   0.3333
   4.600   0.9104   0.00969   0.00407  -0.0810  0.5442  1.0000  -1.4206   0.0000   0.0000   0.0000   0.3320
   4.700   0.9209   0.00976   0.00413  -0.0809  0.5378  1.0000  -1.4435   0.0000   0.0000   0.0000   0.3308
   4.800   0.9312   0.00985   0.00420  -0.0807  0.5318  1.0000  -1.4676   0.0000   0.0000   0.0000   0.3296
   4.900   0.9415   0.00994   0.00426  -0.0806  0.5253  1.0000  -1.4918   0.0000   0.0000   0.0000   0.3283
   5.000   0.9518   0.01003   0.00433  -0.0804  0.5187  1.0000  -1.5161   0.0000   0.0000   0.0000   0.3272
   5.100   0.9618   0.01014   0.00440  -0.0803  0.5124  1.0000  -1.5403   0.0000   0.0000   0.0000   0.3260
   5.200   0.9721   0.01023   0.00452  -0.0801  0.5053  1.0000  -1.5647   0.0000   0.0000   0.0000   0.3248
   5.300   0.9822   0.01034   0.00459  -0.0800  0.4988  1.0000  -1.5892   0.0000   0.0000   0.0000   0.3237
   5.400   0.9922   0.01045   0.00467  -0.0798  0.4920  1.0000  -1.6153   0.0000   0.0000   0.0000   0.3226
   5.500   1.0023   0.01055   0.00476  -0.0796  0.4851  1.0000  -1.6415   0.0000   0.0000   0.0000   0.3215
   5.600   1.0122   0.01067   0.00484  -0.0795  0.4787  1.0000  -1.6676   0.0000   0.0000   0.0000   0.3204
   5.700   1.0222   0.01077   0.00494  -0.0793  0.4717  1.0000  -1.6940   0.0000   0.0000   0.0000   0.3194
   5.800   1.0321   0.01089   0.00503  -0.0791  0.4649  1.0000  -1.7204   0.0000   0.0000   0.0000   0.3183
   5.900   1.0417   0.01103   0.00512  -0.0789  0.4580  1.0000  -1.7497   0.0000   0.0000   0.0000   0.3173
   6.000   1.0516   0.01114   0.00523  -0.0787  0.4505  1.0000  -1.7809   0.0000   0.0000   0.0000   0.3163
   6.100   1.0612   0.01127   0.00533  -0.0785  0.4432  1.0000  -1.8120   0.0000   0.0000   0.0000   0.3153
   6.200   1.0706   0.01142   0.00544  -0.0782  0.4361  1.0000  -1.8428   0.0000   0.0000   0.0000   0.3142
   6.300   1.0803   0.01154   0.00555  -0.0780  0.4285  1.0000  -1.8743   0.0000   0.0000   0.0000   0.3133
   6.400   1.0898   0.01168   0.00566  -0.0778  0.4213  1.0000  -1.9055   0.0000   0.0000   0.0000   0.3123
   6.600   1.1084   0.01198   0.00590  -0.0773  0.4062  1.0000  -1.9757   0.0000   0.0000   0.0000   0.3104
   6.700   1.1176   0.01213   0.00603  -0.0770  0.3985  1.0000  -2.0165   0.0000   0.0000   0.0000   0.3095
   6.800   1.1266   0.01230   0.00616  -0.0767  0.3910  1.0000  -2.0569   0.0000   0.0000   0.0000   0.3085
   6.900   1.1356   0.01247   0.00629  -0.0765  0.3832  1.0000  -2.0977   0.0000   0.0000   0.0000   0.3076
   7.000   1.1446   0.01263   0.00643  -0.0762  0.3754  1.0000  -2.1389   0.0000   0.0000   0.0000   0.3067
   7.100   1.1535   0.01280   0.00657  -0.0759  0.3680  1.0000  -2.1798   0.0000   0.0000   0.0000   0.3058
   7.200   1.1621   0.01299   0.00672  -0.0755  0.3606  1.0000  -2.2206   0.0000   0.0000   0.0000   0.3049
   7.300   1.1711   0.01315   0.00691  -0.0752  0.3529  1.0000  -2.2629   0.0000   0.0000   0.0000   0.3040
   7.400   1.1796   0.01334   0.00707  -0.0749  0.3455  1.0000  -2.3099   0.0000   0.0000   0.0000   0.3031
   7.500   1.1879   0.01354   0.00723  -0.0745  0.3382  1.0000  -2.3563   0.0000   0.0000   0.0000   0.3022
   7.600   1.1964   0.01373   0.00740  -0.0742  0.3302  1.0000  -2.4038   0.0000   0.0000   0.0000   0.3013
   7.700   1.2047   0.01392   0.00757  -0.0738  0.3225  1.0000  -2.4511   0.0000   0.0000   0.0000   0.3004
   7.800   1.2127   0.01414   0.00775  -0.0734  0.3152  1.0000  -2.4977   0.0000   0.0000   0.0000   0.2996
   7.900   1.2205   0.01436   0.00793  -0.0730  0.3076  1.0000  -2.5443   0.0000   0.0000   0.0000   0.2987
   8.000   1.2286   0.01456   0.00811  -0.0726  0.2999  1.0000  -2.5920   0.0000   0.0000   0.0000   0.2978
   8.100   1.2364   0.01478   0.00830  -0.0722  0.2926  1.0000  -2.6390   0.0000   0.0000   0.0000   0.2970
   8.200   1.2437   0.01502   0.00850  -0.0717  0.2854  1.0000  -2.6852   0.0000   0.0000   0.0000   0.2961
   8.300   1.2514   0.01524   0.00870  -0.0712  0.2780  1.0000  -2.7324   0.0000   0.0000   0.0000   0.2952
   8.400   1.2588   0.01547   0.00890  -0.0708  0.2710  1.0000  -2.7793   0.0000   0.0000   0.0000   0.2944
   8.500   1.2657   0.01573   0.00912  -0.0702  0.2644  1.0000  -2.8250   0.0000   0.0000   0.0000   0.2935
   8.600   1.2729   0.01596   0.00934  -0.0697  0.2576  1.0000  -2.8719   0.0000   0.0000   0.0000   0.2927
   8.700   1.2800   0.01620   0.00956  -0.0692  0.2512  1.0000  -2.9185   0.0000   0.0000   0.0000   0.2918
   8.900   1.2926   0.01670   0.01001  -0.0679  0.2391  1.0000  -3.0084   0.0000   0.0000   0.0000   0.2900
   9.000   1.2982   0.01698   0.01026  -0.0672  0.2336  1.0000  -3.0518   0.0000   0.0000   0.0000   0.2890
   9.100   1.3044   0.01724   0.01050  -0.0665  0.2275  1.0000  -3.0969   0.0000   0.0000   0.0000   0.2882
   9.200   1.3103   0.01752   0.01076  -0.0659  0.2218  1.0000  -3.1415   0.0000   0.0000   0.0000   0.2873
   9.300   1.3158   0.01782   0.01104  -0.0652  0.2161  1.0000  -3.1853   0.0000   0.0000   0.0000   0.2864
   9.400   1.3221   0.01810   0.01134  -0.0647  0.2103  1.0000  -3.2312   0.0000   0.0000   0.0000   0.2856
   9.600   1.3336   0.01871   0.01192  -0.0635  0.1991  1.0000  -3.3208   0.0000   0.0000   0.0000   0.2840
   9.700   1.3389   0.01906   0.01224  -0.0628  0.1940  1.0000  -3.3645   0.0000   0.0000   0.0000   0.2831
   9.800   1.3448   0.01937   0.01254  -0.0623  0.1887  1.0000  -3.4099   0.0000   0.0000   0.0000   0.2824
   9.900   1.3501   0.01972   0.01288  -0.0617  0.1839  1.0000  -3.4539   0.0000   0.0000   0.0000   0.2816
  10.000   1.3557   0.02006   0.01320  -0.0611  0.1788  1.0000  -3.4990   0.0000   0.0000   0.0000   0.2808
  10.100   1.3610   0.02042   0.01355  -0.0605  0.1743  1.0000  -3.5430   0.0000   0.0000   0.0000   0.2800
  10.200   1.3663   0.02079   0.01390  -0.0600  0.1695  1.0000  -3.5876   0.0000   0.0000   0.0000   0.2793
  10.300   1.3714   0.02117   0.01428  -0.0594  0.1651  1.0000  -3.6314   0.0000   0.0000   0.0000   0.2785
  10.400   1.3766   0.02155   0.01465  -0.0588  0.1605  1.0000  -3.6758   0.0000   0.0000   0.0000   0.2778
  10.500   1.3813   0.02197   0.01505  -0.0583  0.1564  1.0000  -3.7189   0.0000   0.0000   0.0000   0.2771
  10.600   1.3864   0.02236   0.01544  -0.0577  0.1520  1.0000  -3.7633   0.0000   0.0000   0.0000   0.2764
  10.700   1.3907   0.02281   0.01587  -0.0571  0.1482  1.0000  -3.8053   0.0000   0.0000   0.0000   0.2756
  10.800   1.3962   0.02319   0.01626  -0.0566  0.1438  1.0000  -3.8508   0.0000   0.0000   0.0000   0.2750
  10.900   1.4000   0.02368   0.01672  -0.0560  0.1402  1.0000  -3.8918   0.0000   0.0000   0.0000   0.2742
  11.000   1.4056   0.02406   0.01711  -0.0556  0.1359  1.0000  -3.9381   0.0000   0.0000   0.0000   0.2736
  11.100   1.4094   0.02456   0.01759  -0.0550  0.1324  1.0000  -3.9790   0.0000   0.0000   0.0000   0.2729
  11.200   1.4147   0.02496   0.01800  -0.0545  0.1284  1.0000  -4.0246   0.0000   0.0000   0.0000   0.2722
  11.300   1.4186   0.02546   0.01849  -0.0539  0.1250  1.0000  -4.0661   0.0000   0.0000   0.0000   0.2715
  11.400   1.4233   0.02591   0.01895  -0.0534  0.1214  1.0000  -4.1098   0.0000   0.0000   0.0000   0.2709
  11.500   1.4274   0.02641   0.01946  -0.0529  0.1180  1.0000  -4.1519   0.0000   0.0000   0.0000   0.2702
  11.600   1.4311   0.02694   0.01998  -0.0524  0.1149  1.0000  -4.1929   0.0000   0.0000   0.0000   0.2696
  11.700   1.4355   0.02743   0.02048  -0.0519  0.1115  1.0000  -4.2358   0.0000   0.0000   0.0000   0.2689
  11.800   1.4382   0.02804   0.02107  -0.0513  0.1088  1.0000  -4.2738   0.0000   0.0000   0.0000   0.2683
  11.900   1.4428   0.02851   0.02157  -0.0508  0.1056  1.0000  -4.3175   0.0000   0.0000   0.0000   0.2677
  12.000   1.4460   0.02910   0.02215  -0.0503  0.1027  1.0000  -4.3568   0.0000   0.0000   0.0000   0.2670
  12.100   1.4492   0.02969   0.02274  -0.0497  0.1001  1.0000  -4.3961   0.0000   0.0000   0.0000   0.2664
  12.200   1.4528   0.03025   0.02331  -0.0492  0.0972  1.0000  -4.4368   0.0000   0.0000   0.0000   0.2658
  12.300   1.4548   0.03094   0.02399  -0.0487  0.0949  1.0000  -4.4741   0.0000   0.0000   0.0000   0.2652
  12.400   1.4585   0.03151   0.02457  -0.0482  0.0923  1.0000  -4.5182   0.0000   0.0000   0.0000   0.2646
  12.500   1.4613   0.03215   0.02522  -0.0477  0.0898  1.0000  -4.5593   0.0000   0.0000   0.0000   0.2640
  12.600   1.4627   0.03291   0.02597  -0.0471  0.0878  1.0000  -4.5957   0.0000   0.0000   0.0000   0.2634
  12.700   1.4666   0.03347   0.02656  -0.0467  0.0852  1.0000  -4.6406   0.0000   0.0000   0.0000   0.2628
  12.800   1.4687   0.03418   0.02728  -0.0462  0.0830  1.0000  -4.6794   0.0000   0.0000   0.0000   0.2622
  12.900   1.4703   0.03494   0.02804  -0.0457  0.0811  1.0000  -4.7165   0.0000   0.0000   0.0000   0.2616
  13.000   1.4734   0.03559   0.02871  -0.0453  0.0788  1.0000  -4.7583   0.0000   0.0000   0.0000   0.2611
  13.100   1.4748   0.03638   0.02950  -0.0448  0.0770  1.0000  -4.7948   0.0000   0.0000   0.0000   0.2605
  13.200   1.4760   0.03720   0.03033  -0.0443  0.0753  1.0000  -4.8298   0.0000   0.0000   0.0000   0.2600
  13.300   1.4786   0.03790   0.03106  -0.0439  0.0732  1.0000  -4.8700   0.0000   0.0000   0.0000   0.2595
  13.400   1.4797   0.03875   0.03190  -0.0435  0.0716  1.0000  -4.9049   0.0000   0.0000   0.0000   0.2589
  13.500   1.4799   0.03967   0.03283  -0.0430  0.0701  1.0000  -4.9364   0.0000   0.0000   0.0000   0.2584
  13.600   1.4825   0.04040   0.03359  -0.0426  0.0682  1.0000  -4.9759   0.0000   0.0000   0.0000   0.2579
  13.700   1.4836   0.04127   0.03447  -0.0422  0.0667  1.0000  -5.0106   0.0000   0.0000   0.0000   0.2574
  13.800   1.4830   0.04229   0.03551  -0.0418  0.0656  1.0000  -5.0393   0.0000   0.0000   0.0000   0.2569
  13.900   1.4848   0.04311   0.03637  -0.0415  0.0640  1.0000  -5.0753   0.0000   0.0000   0.0000   0.2565
  14.000   1.4863   0.04397   0.03726  -0.0411  0.0625  1.0000  -5.1108   0.0000   0.0000   0.0000   0.2560
  14.100   1.4864   0.04498   0.03827  -0.0408  0.0614  1.0000  -5.1418   0.0000   0.0000   0.0000   0.2556
  14.200   1.4855   0.04610   0.03939  -0.0405  0.0604  1.0000  -5.1682   0.0000   0.0000   0.0000   0.2551
  14.300   1.4874   0.04696   0.04030  -0.0402  0.0590  1.0000  -5.2040   0.0000   0.0000   0.0000   0.2547
  14.400   1.4883   0.04793   0.04129  -0.0399  0.0578  1.0000  -5.2370   0.0000   0.0000   0.0000   0.2543
  14.500   1.4881   0.04902   0.04239  -0.0397  0.0569  1.0000  -5.2662   0.0000   0.0000   0.0000   0.2540
  14.600   1.4866   0.05027   0.04363  -0.0395  0.0561  1.0000  -5.2899   0.0000   0.0000   0.0000   0.2536
  14.700   1.4877   0.05125   0.04467  -0.0393  0.0550  1.0000  -5.3218   0.0000   0.0000   0.0000   0.2532
  14.800   1.4884   0.05229   0.04574  -0.0391  0.0540  1.0000  -5.3528   0.0000   0.0000   0.0000   0.2529
  14.900   1.4886   0.05340   0.04687  -0.0389  0.0532  1.0000  -5.3829   0.0000   0.0000   0.0000   0.2526
  15.000   1.4878   0.05462   0.04810  -0.0388  0.0525  1.0000  -5.4119   0.0000   0.0000   0.0000   0.2523
  15.100   1.4858   0.05597   0.04945  -0.0386  0.0519  1.0000  -5.4357   0.0000   0.0000   0.0000   0.2520
  15.200   1.4867   0.05703   0.05057  -0.0385  0.0510  1.0000  -5.4696   0.0000   0.0000   0.0000   0.2517
  15.300   1.4871   0.05816   0.05174  -0.0384  0.0502  1.0000  -5.5018   0.0000   0.0000   0.0000   0.2514
  15.400   1.4871   0.05935   0.05295  -0.0384  0.0494  1.0000  -5.5328   0.0000   0.0000   0.0000   0.2511
  15.500   1.4866   0.06059   0.05422  -0.0383  0.0488  1.0000  -5.5621   0.0000   0.0000   0.0000   0.2509
  15.600   1.4854   0.06192   0.05555  -0.0383  0.0483  1.0000  -5.5888   0.0000   0.0000   0.0000   0.2507
  15.700   1.4834   0.06334   0.05697  -0.0383  0.0478  1.0000  -5.6112   0.0000   0.0000   0.0000   0.2504
  15.800   1.4840   0.06450   0.05820  -0.0383  0.0471  1.0000  -5.6427   0.0000   0.0000   0.0000   0.2502
  15.900   1.4840   0.06573   0.05947  -0.0383  0.0465  1.0000  -5.6723   0.0000   0.0000   0.0000   0.2500
  16.000   1.4836   0.06700   0.06078  -0.0383  0.0459  1.0000  -5.7009   0.0000   0.0000   0.0000   0.2498
  16.100   1.4831   0.06831   0.06211  -0.0384  0.0454  1.0000  -5.7291   0.0000   0.0000   0.0000   0.2496
  16.200   1.4823   0.06965   0.06346  -0.0385  0.0450  1.0000  -5.7563   0.0000   0.0000   0.0000   0.2495
  16.300   1.4811   0.07102   0.06484  -0.0385  0.0446  1.0000  -5.7822   0.0000   0.0000   0.0000   0.2493
  16.400   1.4794   0.07243   0.06625  -0.0386  0.0442  1.0000  -5.8054   0.0000   0.0000   0.0000   0.2491
  16.500   1.4794   0.07373   0.06761  -0.0387  0.0437  1.0000  -5.8329   0.0000   0.0000   0.0000   0.2490
  16.600   1.4791   0.07505   0.06899  -0.0388  0.0432  1.0000  -5.8597   0.0000   0.0000   0.0000   0.2488
  16.700   1.4787   0.07639   0.07037  -0.0389  0.0427  1.0000  -5.8867   0.0000   0.0000   0.0000   0.2487
  16.800   1.4782   0.07774   0.07175  -0.0391  0.0422  1.0000  -5.9136   0.0000   0.0000   0.0000   0.2486
  16.900   1.4776   0.07909   0.07313  -0.0393  0.0418  1.0000  -5.9410   0.0000   0.0000   0.0000   0.2485
  17.000   1.4770   0.08045   0.07450  -0.0394  0.0414  1.0000  -5.9684   0.0000   0.0000   0.0000   0.2484
  17.100   1.4763   0.08180   0.07584  -0.0396  0.0411  1.0000  -5.9960   0.0000   0.0000   0.0000   0.2483
  17.200   1.4756   0.08307   0.07710  -0.0396  0.0408  1.0000  -6.0240   0.0000   0.0000   0.0000   0.2481
  17.300   1.4749   0.08452   0.07861  -0.0399  0.0404  1.0000  -6.0471   0.0000   0.0000   0.0000   0.2480
  17.400   1.4744   0.08594   0.08010  -0.0402  0.0399  1.0000  -6.0711   0.0000   0.0000   0.0000   0.2480
  17.500   1.4738   0.08735   0.08156  -0.0404  0.0395  1.0000  -6.0958   0.0000   0.0000   0.0000   0.2479
  17.600   1.4733   0.08874   0.08298  -0.0407  0.0392  1.0000  -6.1238   0.0000   0.0000   0.0000   0.2479
  17.700   1.4729   0.09011   0.08438  -0.0410  0.0388  1.0000  -6.1570   0.0000   0.0000   0.0000   0.2478
  17.800   1.4727   0.09145   0.08573  -0.0412  0.0385  1.0000  -6.1916   0.0000   0.0000   0.0000   0.2478
  17.900   1.4727   0.09273   0.08702  -0.0415  0.0382  1.0000  -6.2280   0.0000   0.0000   0.0000   0.2477
  18.000   1.4730   0.09393   0.08822  -0.0416  0.0379  1.0000  -6.2743   0.0000   0.0000   0.0000   0.2476
  18.100   1.4740   0.09496   0.08922  -0.0417  0.0376  1.0000  -6.3265   0.0000   0.0000   0.0000   0.2473
  18.200   1.4737   0.09630   0.09060  -0.0419  0.0373  1.0000  -6.3674   0.0000   0.0000   0.0000   0.2473
  18.300   1.4728   0.09782   0.09220  -0.0423  0.0370  1.0000  -6.4023   0.0000   0.0000   0.0000   0.2473
  18.400   1.4722   0.09927   0.09370  -0.0427  0.0368  1.0000  -6.4401   0.0000   0.0000   0.0000   0.2474
  18.500   1.4718   0.10068   0.09516  -0.0431  0.0365  1.0000  -6.4795   0.0000   0.0000   0.0000   0.2474
  18.600   1.4716   0.10205   0.09656  -0.0434  0.0362  1.0000  -6.5208   0.0000   0.0000   0.0000   0.2474
  18.700   1.4718   0.10335   0.09789  -0.0438  0.0359  1.0000  -6.5646   0.0000   0.0000   0.0000   0.2474
  18.800   1.4722   0.10460   0.09917  -0.0441  0.0357  1.0000  -6.6106   0.0000   0.0000   0.0000   0.2473
  18.900   1.4730   0.10578   0.10035  -0.0444  0.0354  1.0000  -6.6598   0.0000   0.0000   0.0000   0.2472
  19.000   1.4744   0.10683   0.10142  -0.0446  0.0352  1.0000  -6.7135   0.0000   0.0000   0.0000   0.2471
  19.100   1.4765   0.10771   0.10229  -0.0447  0.0349  1.0000  -6.7736   0.0000   0.0000   0.0000   0.2469
  19.200   1.4801   0.10828   0.10282  -0.0446  0.0347  1.0000  -6.8450   0.0000   0.0000   0.0000   0.2465
  19.300   1.4820   0.10917   0.10372  -0.0447  0.0344  1.0000  -6.9026   0.0000   0.0000   0.0000   0.2463
  19.400   1.4805   0.11085   0.10547  -0.0453  0.0342  1.0000  -6.9311   0.0000   0.0000   0.0000   0.2465
  19.500   1.4792   0.11247   0.10717  -0.0460  0.0340  1.0000  -6.9616   0.0000   0.0000   0.0000   0.2467
  19.600   1.4783   0.11404   0.10880  -0.0466  0.0338  1.0000  -6.9944   0.0000   0.0000   0.0000   0.2469
  19.700   1.4775   0.11557   0.11038  -0.0472  0.0336  1.0000  -7.0289   0.0000   0.0000   0.0000   0.2470
  19.800   1.4771   0.11703   0.11188  -0.0478  0.0333  1.0000  -7.0663   0.0000   0.0000   0.0000   0.2472
  19.900   1.4769   0.11845   0.11335  -0.0484  0.0331  1.0000  -7.1054   0.0000   0.0000   0.0000   0.2473
  20.000   1.4769   0.11981   0.11475  -0.0490  0.0329  1.0000  -7.1472   0.0000   0.0000   0.0000   0.2475


