xflr5 v6.57

 Calculated polar for: QX0123

 1 1 Reynolds number fixed          Mach number fixed         

 xtrf =   1.000 (top)        1.000 (bottom)
 Mach =   0.000     Re =     0.260 e 6     Ncrit =   9.000

  alpha     CL        CD       CDp       Cm    Top Xtr Bot Xtr   Cpmin    Chinge    XCp    
 ------- -------- --------- --------- -------- ------- ------- -------- --------- ---------
 -10.000  -0.4546   0.06256   0.05945  -0.0770  0.9808  0.0402  -3.6190   0.0000   0.0000   0.0000   0.0648
  -9.900  -0.4474   0.06183   0.05873  -0.0781  0.9775  0.0405  -3.5551   0.0000   0.0000   0.0000   0.0595
  -9.800  -0.4400   0.06085   0.05775  -0.0797  0.9747  0.0407  -3.5002   0.0000   0.0000   0.0000   0.0529
  -9.700  -0.4332   0.05990   0.05679  -0.0814  0.9713  0.0409  -3.4469   0.0000   0.0000   0.0000   0.0464
  -9.600  -0.4265   0.05909   0.05598  -0.0829  0.9676  0.0412  -3.3901   0.0000   0.0000   0.0000   0.0399
  -9.500  -0.4192   0.05855   0.05544  -0.0841  0.9644  0.0416  -3.3235   0.0000   0.0000   0.0000   0.0337
  -9.400  -0.4119   0.05853   0.05542  -0.0845  0.9605  0.0421  -3.2445   0.0000   0.0000   0.0000   0.0293
  -9.300  -0.4029   0.05915   0.05605  -0.0840  0.9576  0.0427  -3.1435   0.0000   0.0000   0.0000   0.0261
  -9.200  -0.3759   0.06587   0.06278  -0.0762  0.9578  0.0450  -2.8063   0.0000   0.0000   0.0000   0.0317
  -9.100  -0.3649   0.06736   0.06428  -0.0754  0.9551  0.0494  -2.6532   0.0000   0.0000   0.0000   0.0276
  -9.000  -0.3599   0.06698   0.06391  -0.0755  0.9513  0.0500  -2.5999   0.0000   0.0000   0.0000   0.0247
  -8.900  -0.3535   0.06703   0.06395  -0.0752  0.9483  0.0511  -2.5294   0.0000   0.0000   0.0000   0.0219
  -8.700  -0.4954   0.02889   0.02310  -0.0978  0.9246  0.0402  -4.3217   0.0000   0.0000   0.0000   0.0389
  -8.600  -0.4880   0.02813   0.02229  -0.0977  0.9223  0.0406  -4.2647   0.0000   0.0000   0.0000   0.0362
  -8.500  -0.4800   0.02759   0.02170  -0.0975  0.9202  0.0410  -4.1998   0.0000   0.0000   0.0000   0.0333
  -8.400  -0.4719   0.02712   0.02117  -0.0972  0.9184  0.0414  -4.1334   0.0000   0.0000   0.0000   0.0304
  -8.300  -0.4637   0.02668   0.02067  -0.0969  0.9169  0.0418  -4.0679   0.0000   0.0000   0.0000   0.0275
  -8.200  -0.4549   0.02621   0.02014  -0.0968  0.9144  0.0421  -4.0020   0.0000   0.0000   0.0000   0.0235
  -8.100  -0.4461   0.02576   0.01962  -0.0967  0.9122  0.0425  -3.9373   0.0000   0.0000   0.0000   0.0197
  -8.000  -0.4374   0.02530   0.01909  -0.0964  0.9102  0.0429  -3.8732   0.0000   0.0000   0.0000   0.0158
  -7.900  -0.4287   0.02483   0.01854  -0.0961  0.9085  0.0433  -3.8108   0.0000   0.0000   0.0000   0.0120
  -7.800  -0.4201   0.02437   0.01798  -0.0958  0.9069  0.0437  -3.7620   0.0000   0.0000   0.0000   0.0081
  -7.700  -0.4110   0.02390   0.01743  -0.0956  0.9050  0.0440  -3.7147   0.0000   0.0000   0.0000   0.0034
  -7.600  -0.4016   0.02343   0.01688  -0.0955  0.9026  0.0444  -3.6671   0.0000   0.0000   0.0000  -0.0017
  -7.500  -0.3924   0.02298   0.01634  -0.0953  0.9006  0.0448  -3.6198   0.0000   0.0000   0.0000  -0.0068
  -7.400  -0.3832   0.02255   0.01581  -0.0950  0.8987  0.0452  -3.5722   0.0000   0.0000   0.0000  -0.0120
  -7.300  -0.3740   0.02214   0.01531  -0.0946  0.8971  0.0456  -3.5239   0.0000   0.0000   0.0000  -0.0173
  -7.200  -0.3646   0.02181   0.01489  -0.0943  0.8958  0.0462  -3.4729   0.0000   0.0000   0.0000  -0.0229
  -7.100  -0.3544   0.02156   0.01455  -0.0942  0.8934  0.0468  -3.4179   0.0000   0.0000   0.0000  -0.0304
  -7.000  -0.3442   0.02140   0.01429  -0.0941  0.8912  0.0473  -3.3613   0.0000   0.0000   0.0000  -0.0380
  -6.900  -0.3352   0.02069   0.01354  -0.0939  0.8893  0.0481  -3.3172   0.0000   0.0000   0.0000  -0.0448
  -6.800  -0.3258   0.02025   0.01311  -0.0937  0.8876  0.0489  -3.2604   0.0000   0.0000   0.0000  -0.0524
  -6.700  -0.3161   0.01998   0.01284  -0.0934  0.8862  0.0496  -3.2001   0.0000   0.0000   0.0000  -0.0605
  -6.600  -0.3064   0.01973   0.01257  -0.0931  0.8849  0.0503  -3.1415   0.0000   0.0000   0.0000  -0.0692
  -6.500  -0.2959   0.01948   0.01230  -0.0932  0.8824  0.0511  -3.0844   0.0000   0.0000   0.0000  -0.0802
  -6.400  -0.2857   0.01919   0.01198  -0.0930  0.8803  0.0519  -3.0310   0.0000   0.0000   0.0000  -0.0912
  -6.300  -0.2756   0.01890   0.01165  -0.0928  0.8784  0.0528  -2.9792   0.0000   0.0000   0.0000  -0.1026
  -6.200  -0.2655   0.01863   0.01132  -0.0925  0.8767  0.0538  -2.9281   0.0000   0.0000   0.0000  -0.1146
  -6.100  -0.2554   0.01839   0.01101  -0.0922  0.8753  0.0548  -2.8774   0.0000   0.0000   0.0000  -0.1275
  -6.000  -0.2455   0.01808   0.01063  -0.0919  0.8740  0.0559  -2.8290   0.0000   0.0000   0.0000  -0.1409
  -5.900  -0.2356   0.01766   0.01026  -0.0919  0.8715  0.0573  -2.7760   0.0000   0.0000   0.0000  -0.1569
  -5.800  -0.2254   0.01744   0.01008  -0.0918  0.8694  0.0586  -2.7179   0.0000   0.0000   0.0000  -0.1747
  -5.700  -0.2150   0.01726   0.00988  -0.0916  0.8675  0.0602  -2.6613   0.0000   0.0000   0.0000  -0.1939
  -5.600  -0.2047   0.01707   0.00965  -0.0914  0.8659  0.0621  -2.6071   0.0000   0.0000   0.0000  -0.2149
  -5.400  -0.1847   0.01657   0.00912  -0.0908  0.8632  0.0656  -2.4999   0.0000   0.0000   0.0000  -0.2614
  -5.300  -0.1741   0.01642   0.00900  -0.0908  0.8611  0.0675  -2.4409   0.0000   0.0000   0.0000  -0.2919
  -5.200  -0.1634   0.01629   0.00885  -0.0908  0.8588  0.0697  -2.3839   0.0000   0.0000   0.0000  -0.3265
  -5.100  -0.1526   0.01618   0.00867  -0.0906  0.8569  0.0718  -2.3432   0.0000   0.0000   0.0000  -0.3657
  -5.000  -0.1427   0.01592   0.00846  -0.0904  0.8552  0.0739  -2.3002   0.0000   0.0000   0.0000  -0.4068
  -4.900  -0.1323   0.01578   0.00833  -0.0902  0.8537  0.0761  -2.2549   0.0000   0.0000   0.0000  -0.4565
  -4.800  -0.1217   0.01566   0.00817  -0.0900  0.8524  0.0787  -2.2117   0.0000   0.0000   0.0000  -0.5150
  -4.700  -0.1113   0.01549   0.00801  -0.0899  0.8504  0.0812  -2.1690   0.0000   0.0000   0.0000  -0.5854
  -4.600  -0.1007   0.01536   0.00791  -0.0899  0.8479  0.0838  -2.1230   0.0000   0.0000   0.0000  -0.6724
  -4.500  -0.0899   0.01525   0.00778  -0.0898  0.8458  0.0871  -2.0790   0.0000   0.0000   0.0000  -0.7800
  -4.400  -0.0796   0.01506   0.00760  -0.0896  0.8440  0.0902  -2.0353   0.0000   0.0000   0.0000  -0.9107
  -4.300  -0.0690   0.01493   0.00747  -0.0894  0.8425  0.0941  -1.9896   0.0000   0.0000   0.0000  -1.0845
  -4.200  -0.0586   0.01477   0.00731  -0.0892  0.8412  0.0985  -1.9452   0.0000   0.0000   0.0000  -1.3183
  -4.100  -0.0478   0.01466   0.00722  -0.0891  0.8393  0.1034  -1.8994   0.0000   0.0000   0.0000  -1.6667
  -4.000  -0.0372   0.01454   0.00714  -0.0892  0.8368  0.1085  -1.8537   0.0000   0.0000   0.0000  -2.2138
  -3.900  -0.0264   0.01443   0.00706  -0.0891  0.8347  0.1145  -1.8080   0.0000   0.0000   0.0000  -3.2129
  -3.800  -0.0156   0.01435   0.00696  -0.0890  0.8330  0.1213  -1.7621   0.0000   0.0000   0.0000  -5.6162
  -3.700  -0.0050   0.01420   0.00685  -0.0888  0.8314  0.1279  -1.7167   0.0000   0.0000   0.0000  -18.1298
  -3.600   0.0057   0.01405   0.00672  -0.0886  0.8301  0.1348  -1.6719   0.0000   0.0000   0.0000  16.3110
  -3.500   0.0163   0.01392   0.00662  -0.0886  0.8283  0.1419  -1.6277   0.0000   0.0000   0.0000   5.8109
  -3.400   0.0270   0.01381   0.00655  -0.0886  0.8256  0.1494  -1.5835   0.0000   0.0000   0.0000   3.6032
  -3.300   0.0378   0.01369   0.00647  -0.0885  0.8234  0.1575  -1.5390   0.0000   0.0000   0.0000   2.6456
  -3.200   0.0486   0.01357   0.00638  -0.0884  0.8216  0.1662  -1.4943   0.0000   0.0000   0.0000   2.1096
  -3.100   0.0594   0.01344   0.00628  -0.0883  0.8201  0.1758  -1.4497   0.0000   0.0000   0.0000   1.7673
  -3.000   0.0703   0.01332   0.00618  -0.0881  0.8188  0.1863  -1.4052   0.0000   0.0000   0.0000   1.5296
  -2.900   0.0811   0.01322   0.00612  -0.0881  0.8168  0.1975  -1.3612   0.0000   0.0000   0.0000   1.3575
  -2.800   0.0918   0.01312   0.00608  -0.0881  0.8140  0.2095  -1.3176   0.0000   0.0000   0.0000   1.2274
  -2.700   0.1026   0.01301   0.00602  -0.0880  0.8118  0.2231  -1.2739   0.0000   0.0000   0.0000   1.1232
  -2.600   0.1134   0.01288   0.00595  -0.0879  0.8100  0.2385  -1.2302   0.0000   0.0000   0.0000   1.0384
  -2.500   0.1242   0.01275   0.00586  -0.0878  0.8084  0.2551  -1.1868   0.0000   0.0000   0.0000   0.9681
  -2.400   0.1351   0.01261   0.00577  -0.0876  0.8071  0.2729  -1.1437   0.0000   0.0000   0.0000   0.9090
  -2.300   0.1457   0.01251   0.00576  -0.0876  0.8043  0.2921  -1.1015   0.0000   0.0000   0.0000   0.8604
  -2.200   0.1564   0.01239   0.00573  -0.0876  0.8017  0.3139  -1.0595   0.0000   0.0000   0.0000   0.8180
  -2.100   0.1671   0.01225   0.00567  -0.0875  0.7996  0.3383  -1.0176   0.0000   0.0000   0.0000   0.7807
  -2.000   0.1777   0.01209   0.00560  -0.0874  0.7979  0.3648  -0.9761   0.0000   0.0000   0.0000   0.7477
  -1.900   0.1884   0.01192   0.00552  -0.0872  0.7964  0.3947  -0.9349   0.0000   0.0000   0.0000   0.7184
  -1.800   0.1989   0.01176   0.00548  -0.0871  0.7946  0.4278  -0.8944   0.0000   0.0000   0.0000   0.6926
  -1.700   0.2090   0.01163   0.00551  -0.0870  0.7915  0.4638  -0.8549   0.0000   0.0000   0.0000   0.6702
  -1.600   0.2193   0.01147   0.00550  -0.0868  0.7892  0.5037  -0.8156   0.0000   0.0000   0.0000   0.6494
  -1.500   0.2295   0.01131   0.00547  -0.0865  0.7873  0.5437  -0.7765   0.0000   0.0000   0.0000   0.6301
  -1.400   0.2397   0.01116   0.00544  -0.0862  0.7857  0.5826  -0.7474   0.0000   0.0000   0.0000   0.6122
  -1.300   0.2499   0.01102   0.00541  -0.0858  0.7843  0.6200  -0.7200   0.0000   0.0000   0.0000   0.5956
  -1.200   0.2595   0.01095   0.00547  -0.0854  0.7812  0.6548  -0.6935   0.0000   0.0000   0.0000   0.5811
  -1.100   0.2694   0.01087   0.00549  -0.0850  0.7785  0.6871  -0.6668   0.0000   0.0000   0.0000   0.5671
  -1.000   0.2794   0.01077   0.00547  -0.0845  0.7764  0.7145  -0.6402   0.0000   0.0000   0.0000   0.5539
  -0.900   0.2894   0.01069   0.00543  -0.0840  0.7746  0.7388  -0.6387   0.0000   0.0000   0.0000   0.5413
  -0.800   0.2995   0.01061   0.00538  -0.0835  0.7730  0.7606  -0.6463   0.0000   0.0000   0.0000   0.5295
  -0.700   0.3091   0.01058   0.00543  -0.0831  0.7697  0.7802  -0.6534   0.0000   0.0000   0.0000   0.5192
  -0.600   0.3188   0.01054   0.00543  -0.0825  0.7670  0.7988  -0.6615   0.0000   0.0000   0.0000   0.5091
  -0.500   0.3286   0.01048   0.00539  -0.0820  0.7648  0.8165  -0.6698   0.0000   0.0000   0.0000   0.4994
  -0.400   0.3383   0.01041   0.00534  -0.0814  0.7630  0.8333  -0.6781   0.0000   0.0000   0.0000   0.4902
  -0.300   0.3481   0.01036   0.00530  -0.0808  0.7614  0.8493  -0.6864   0.0000   0.0000   0.0000   0.4815
  -0.200   0.3571   0.01036   0.00534  -0.0802  0.7578  0.8646  -0.6941   0.0000   0.0000   0.0000   0.4738
  -0.100   0.3666   0.01032   0.00532  -0.0796  0.7552  0.8800  -0.7029   0.0000   0.0000   0.0000   0.4661
   0.000   0.3765   0.01026   0.00526  -0.0790  0.7530  0.8952  -0.7126   0.0000   0.0000   0.0000   0.4586
   0.100   0.3869   0.01020   0.00519  -0.0785  0.7513  0.9101  -0.7229   0.0000   0.0000   0.0000   0.4514
   0.200   0.3981   0.01019   0.00519  -0.0782  0.7483  0.9252  -0.7334   0.0000   0.0000   0.0000   0.4450
   0.300   0.4110   0.01016   0.00517  -0.0784  0.7453  0.9401  -0.7449   0.0000   0.0000   0.0000   0.4390
   0.500   0.4431   0.01006   0.00501  -0.0799  0.7409  0.9655  -0.7720   0.0000   0.0000   0.0000   0.4284
   0.600   0.4611   0.01002   0.00494  -0.0812  0.7386  0.9761  -0.7867   0.0000   0.0000   0.0000   0.4240
   0.700   0.4799   0.01001   0.00493  -0.0828  0.7351  0.9858  -0.8017   0.0000   0.0000   0.0000   0.4202
   0.800   0.4997   0.00996   0.00485  -0.0845  0.7323  0.9942  -0.8175   0.0000   0.0000   0.0000   0.4167
   0.900   0.5187   0.00990   0.00474  -0.0861  0.7299  1.0000  -0.8330   0.0000   0.0000   0.0000   0.4133
   1.000   0.5281   0.00989   0.00471  -0.0858  0.7267  1.0000  -0.8433   0.0000   0.0000   0.0000   0.4097
   1.100   0.5375   0.00989   0.00469  -0.0855  0.7230  1.0000  -0.8535   0.0000   0.0000   0.0000   0.4062
   1.200   0.5475   0.00987   0.00463  -0.0852  0.7201  1.0000  -0.8643   0.0000   0.0000   0.0000   0.4027
   1.300   0.5580   0.00984   0.00455  -0.0851  0.7178  1.0000  -0.8755   0.0000   0.0000   0.0000   0.3993
   1.400   0.5676   0.00986   0.00458  -0.0848  0.7133  1.0000  -0.8858   0.0000   0.0000   0.0000   0.3962
   1.500   0.5779   0.00985   0.00453  -0.0846  0.7100  1.0000  -0.8969   0.0000   0.0000   0.0000   0.3931
   1.600   0.5887   0.00983   0.00446  -0.0845  0.7073  1.0000  -0.9104   0.0000   0.0000   0.0000   0.3900
   1.700   0.5988   0.00985   0.00448  -0.0843  0.7030  1.0000  -0.9233   0.0000   0.0000   0.0000   0.3872
   1.800   0.6094   0.00984   0.00445  -0.0842  0.6994  1.0000  -0.9368   0.0000   0.0000   0.0000   0.3844
   1.900   0.6204   0.00983   0.00438  -0.0841  0.6965  1.0000  -0.9507   0.0000   0.0000   0.0000   0.3817
   2.000   0.6307   0.00985   0.00441  -0.0839  0.6922  1.0000  -0.9644   0.0000   0.0000   0.0000   0.3791
   2.100   0.6415   0.00986   0.00440  -0.0838  0.6886  1.0000  -0.9785   0.0000   0.0000   0.0000   0.3766
   2.200   0.6526   0.00986   0.00435  -0.0837  0.6857  1.0000  -0.9931   0.0000   0.0000   0.0000   0.3741
   2.300   0.6631   0.00989   0.00438  -0.0836  0.6814  1.0000  -1.0073   0.0000   0.0000   0.0000   0.3718
   2.400   0.6740   0.00990   0.00437  -0.0835  0.6777  1.0000  -1.0222   0.0000   0.0000   0.0000   0.3695
   2.500   0.6851   0.00991   0.00433  -0.0834  0.6747  1.0000  -1.0374   0.0000   0.0000   0.0000   0.3673
   2.600   0.6956   0.00994   0.00437  -0.0833  0.6699  1.0000  -1.0520   0.0000   0.0000   0.0000   0.3652
   2.700   0.7065   0.00995   0.00435  -0.0832  0.6660  1.0000  -1.0671   0.0000   0.0000   0.0000   0.3631
   2.800   0.7175   0.00997   0.00434  -0.0831  0.6622  1.0000  -1.0823   0.0000   0.0000   0.0000   0.3610
   2.900   0.7281   0.01000   0.00437  -0.0830  0.6574  1.0000  -1.0973   0.0000   0.0000   0.0000   0.3591
   3.000   0.7392   0.01002   0.00434  -0.0829  0.6537  1.0000  -1.1138   0.0000   0.0000   0.0000   0.3571
   3.100   0.7497   0.01005   0.00438  -0.0828  0.6485  1.0000  -1.1299   0.0000   0.0000   0.0000   0.3553
   3.200   0.7606   0.01008   0.00437  -0.0827  0.6439  1.0000  -1.1463   0.0000   0.0000   0.0000   0.3535
   3.300   0.7713   0.01011   0.00438  -0.0826  0.6390  1.0000  -1.1627   0.0000   0.0000   0.0000   0.3517
   3.400   0.7820   0.01014   0.00442  -0.0825  0.6339  1.0000  -1.1796   0.0000   0.0000   0.0000   0.3499
   3.500   0.7928   0.01017   0.00442  -0.0823  0.6289  1.0000  -1.1980   0.0000   0.0000   0.0000   0.3483
   3.600   0.8034   0.01021   0.00444  -0.0822  0.6235  1.0000  -1.2163   0.0000   0.0000   0.0000   0.3466
   3.700   0.8141   0.01025   0.00445  -0.0821  0.6185  1.0000  -1.2349   0.0000   0.0000   0.0000   0.3450
   3.800   0.8247   0.01030   0.00449  -0.0820  0.6129  1.0000  -1.2533   0.0000   0.0000   0.0000   0.3435
   3.900   0.8355   0.01035   0.00451  -0.0819  0.6081  1.0000  -1.2719   0.0000   0.0000   0.0000   0.3419
   4.000   0.8460   0.01040   0.00455  -0.0818  0.6026  1.0000  -1.2904   0.0000   0.0000   0.0000   0.3405
   4.100   0.8567   0.01045   0.00457  -0.0816  0.5977  1.0000  -1.3092   0.0000   0.0000   0.0000   0.3390
   4.200   0.8672   0.01051   0.00462  -0.0815  0.5919  1.0000  -1.3299   0.0000   0.0000   0.0000   0.3376
   4.300   0.8779   0.01058   0.00465  -0.0814  0.5870  1.0000  -1.3516   0.0000   0.0000   0.0000   0.3362
   4.400   0.8883   0.01064   0.00471  -0.0813  0.5809  1.0000  -1.3731   0.0000   0.0000   0.0000   0.3348
   4.500   0.8988   0.01071   0.00475  -0.0811  0.5755  1.0000  -1.3948   0.0000   0.0000   0.0000   0.3335
   4.600   0.9092   0.01078   0.00480  -0.0810  0.5695  1.0000  -1.4165   0.0000   0.0000   0.0000   0.3322
   4.700   0.9196   0.01086   0.00485  -0.0808  0.5638  1.0000  -1.4388   0.0000   0.0000   0.0000   0.3309
   4.800   0.9300   0.01094   0.00491  -0.0807  0.5578  1.0000  -1.4629   0.0000   0.0000   0.0000   0.3297
   4.900   0.9403   0.01102   0.00497  -0.0805  0.5517  1.0000  -1.4871   0.0000   0.0000   0.0000   0.3284
   5.000   0.9505   0.01111   0.00503  -0.0804  0.5458  1.0000  -1.5114   0.0000   0.0000   0.0000   0.3272
   5.100   0.9607   0.01119   0.00510  -0.0802  0.5392  1.0000  -1.5356   0.0000   0.0000   0.0000   0.3260
   5.200   0.9708   0.01129   0.00520  -0.0800  0.5331  1.0000  -1.5599   0.0000   0.0000   0.0000   0.3248
   5.300   0.9809   0.01138   0.00529  -0.0798  0.5261  1.0000  -1.5841   0.0000   0.0000   0.0000   0.3237
   5.400   0.9909   0.01149   0.00536  -0.0796  0.5194  1.0000  -1.6099   0.0000   0.0000   0.0000   0.3226
   5.500   1.0008   0.01160   0.00544  -0.0794  0.5129  1.0000  -1.6360   0.0000   0.0000   0.0000   0.3214
   5.600   1.0107   0.01170   0.00553  -0.0792  0.5057  1.0000  -1.6621   0.0000   0.0000   0.0000   0.3203
   5.700   1.0205   0.01181   0.00561  -0.0790  0.4991  1.0000  -1.6882   0.0000   0.0000   0.0000   0.3192
   5.800   1.0302   0.01193   0.00571  -0.0788  0.4921  1.0000  -1.7143   0.0000   0.0000   0.0000   0.3182
   5.900   1.0400   0.01204   0.00580  -0.0786  0.4850  1.0000  -1.7428   0.0000   0.0000   0.0000   0.3171
   6.000   1.0496   0.01217   0.00590  -0.0783  0.4785  1.0000  -1.7736   0.0000   0.0000   0.0000   0.3161
   6.100   1.0592   0.01229   0.00600  -0.0781  0.4711  1.0000  -1.8046   0.0000   0.0000   0.0000   0.3150
   6.200   1.0687   0.01242   0.00611  -0.0778  0.4639  1.0000  -1.8355   0.0000   0.0000   0.0000   0.3140
   6.300   1.0780   0.01257   0.00622  -0.0776  0.4570  1.0000  -1.8663   0.0000   0.0000   0.0000   0.3130
   6.400   1.0874   0.01270   0.00634  -0.0773  0.4491  1.0000  -1.8974   0.0000   0.0000   0.0000   0.3120
   6.500   1.0967   0.01284   0.00646  -0.0770  0.4416  1.0000  -1.9292   0.0000   0.0000   0.0000   0.3110
   6.600   1.1057   0.01300   0.00658  -0.0767  0.4345  1.0000  -1.9635   0.0000   0.0000   0.0000   0.3101
   6.700   1.1149   0.01315   0.00671  -0.0764  0.4269  1.0000  -2.0039   0.0000   0.0000   0.0000   0.3091
   6.800   1.1239   0.01330   0.00684  -0.0761  0.4191  1.0000  -2.0445   0.0000   0.0000   0.0000   0.3082
   6.900   1.1328   0.01347   0.00697  -0.0758  0.4118  1.0000  -2.0848   0.0000   0.0000   0.0000   0.3072
   7.000   1.1414   0.01364   0.00711  -0.0755  0.4041  1.0000  -2.1251   0.0000   0.0000   0.0000   0.3062
   7.100   1.1502   0.01381   0.00726  -0.0751  0.3960  1.0000  -2.1658   0.0000   0.0000   0.0000   0.3053
   7.200   1.1588   0.01399   0.00741  -0.0748  0.3883  1.0000  -2.2063   0.0000   0.0000   0.0000   0.3044
   7.300   1.1670   0.01418   0.00762  -0.0744  0.3808  1.0000  -2.2464   0.0000   0.0000   0.0000   0.3035
   7.400   1.1755   0.01437   0.00778  -0.0740  0.3729  1.0000  -2.2883   0.0000   0.0000   0.0000   0.3026
   7.500   1.1839   0.01455   0.00795  -0.0736  0.3652  1.0000  -2.3349   0.0000   0.0000   0.0000   0.3017
   7.600   1.1919   0.01475   0.00812  -0.0732  0.3578  1.0000  -2.3810   0.0000   0.0000   0.0000   0.3007
   7.700   1.1998   0.01497   0.00830  -0.0728  0.3502  1.0000  -2.4270   0.0000   0.0000   0.0000   0.2998
   7.800   1.2079   0.01517   0.00848  -0.0724  0.3425  1.0000  -2.4736   0.0000   0.0000   0.0000   0.2990
   7.900   1.2157   0.01538   0.00867  -0.0719  0.3350  1.0000  -2.5197   0.0000   0.0000   0.0000   0.2981
   8.000   1.2230   0.01562   0.00887  -0.0714  0.3277  1.0000  -2.5651   0.0000   0.0000   0.0000   0.2971
   8.100   1.2305   0.01584   0.00907  -0.0709  0.3199  1.0000  -2.6113   0.0000   0.0000   0.0000   0.2963
   8.200   1.2380   0.01607   0.00927  -0.0704  0.3124  1.0000  -2.6573   0.0000   0.0000   0.0000   0.2954
   8.300   1.2449   0.01632   0.00949  -0.0699  0.3053  1.0000  -2.7025   0.0000   0.0000   0.0000   0.2945
   8.400   1.2518   0.01657   0.00971  -0.0693  0.2979  1.0000  -2.7477   0.0000   0.0000   0.0000   0.2936
   8.500   1.2589   0.01680   0.00993  -0.0688  0.2904  1.0000  -2.7936   0.0000   0.0000   0.0000   0.2927
   8.600   1.2655   0.01707   0.01016  -0.0682  0.2835  1.0000  -2.8383   0.0000   0.0000   0.0000   0.2918
   8.700   1.2717   0.01734   0.01040  -0.0676  0.2767  1.0000  -2.8823   0.0000   0.0000   0.0000   0.2909
   8.800   1.2782   0.01759   0.01064  -0.0670  0.2697  1.0000  -2.9273   0.0000   0.0000   0.0000   0.2900
   8.900   1.2834   0.01787   0.01089  -0.0662  0.2636  1.0000  -2.9693   0.0000   0.0000   0.0000   0.2890
   9.000   1.2888   0.01815   0.01115  -0.0654  0.2572  1.0000  -3.0118   0.0000   0.0000   0.0000   0.2881
   9.100   1.2945   0.01843   0.01141  -0.0647  0.2510  1.0000  -3.0551   0.0000   0.0000   0.0000   0.2872
   9.200   1.2993   0.01876   0.01171  -0.0640  0.2453  1.0000  -3.0964   0.0000   0.0000   0.0000   0.2862
   9.300   1.3053   0.01904   0.01199  -0.0633  0.2391  1.0000  -3.1409   0.0000   0.0000   0.0000   0.2854
   9.400   1.3102   0.01939   0.01230  -0.0626  0.2337  1.0000  -3.1825   0.0000   0.0000   0.0000   0.2845
   9.500   1.3158   0.01970   0.01264  -0.0620  0.2277  1.0000  -3.2262   0.0000   0.0000   0.0000   0.2836
   9.600   1.3209   0.02004   0.01297  -0.0613  0.2223  1.0000  -3.2686   0.0000   0.0000   0.0000   0.2828
   9.700   1.3259   0.02040   0.01331  -0.0607  0.2167  1.0000  -3.3110   0.0000   0.0000   0.0000   0.2820
   9.800   1.3312   0.02074   0.01365  -0.0601  0.2112  1.0000  -3.3544   0.0000   0.0000   0.0000   0.2812
   9.900   1.3358   0.02113   0.01401  -0.0594  0.2059  1.0000  -3.3959   0.0000   0.0000   0.0000   0.2803
  10.000   1.3413   0.02148   0.01436  -0.0588  0.2004  1.0000  -3.4400   0.0000   0.0000   0.0000   0.2796
  10.100   1.3454   0.02191   0.01475  -0.0581  0.1956  1.0000  -3.4805   0.0000   0.0000   0.0000   0.2788
  10.200   1.3510   0.02226   0.01511  -0.0576  0.1902  1.0000  -3.5249   0.0000   0.0000   0.0000   0.2780
  10.400   1.3603   0.02308   0.01592  -0.0564  0.1804  1.0000  -3.6092   0.0000   0.0000   0.0000   0.2765
  10.500   1.3639   0.02357   0.01637  -0.0557  0.1762  1.0000  -3.6484   0.0000   0.0000   0.0000   0.2758
  10.600   1.3693   0.02395   0.01677  -0.0552  0.1712  1.0000  -3.6928   0.0000   0.0000   0.0000   0.2751
  10.700   1.3726   0.02446   0.01725  -0.0546  0.1673  1.0000  -3.7315   0.0000   0.0000   0.0000   0.2743
  10.800   1.3779   0.02486   0.01767  -0.0541  0.1626  1.0000  -3.7755   0.0000   0.0000   0.0000   0.2736
  10.900   1.3812   0.02539   0.01816  -0.0534  0.1587  1.0000  -3.8144   0.0000   0.0000   0.0000   0.2729
  11.000   1.3859   0.02583   0.01862  -0.0529  0.1544  1.0000  -3.8570   0.0000   0.0000   0.0000   0.2722
  11.100   1.3894   0.02636   0.01913  -0.0523  0.1506  1.0000  -3.8963   0.0000   0.0000   0.0000   0.2715
  11.200   1.3935   0.02685   0.01963  -0.0518  0.1467  1.0000  -3.9372   0.0000   0.0000   0.0000   0.2708
  11.300   1.3974   0.02737   0.02014  -0.0512  0.1427  1.0000  -3.9777   0.0000   0.0000   0.0000   0.2702
  11.400   1.4006   0.02793   0.02069  -0.0506  0.1393  1.0000  -4.0163   0.0000   0.0000   0.0000   0.2695
  11.500   1.4049   0.02841   0.02119  -0.0501  0.1352  1.0000  -4.0582   0.0000   0.0000   0.0000   0.2688
  11.600   1.4073   0.02905   0.02180  -0.0495  0.1321  1.0000  -4.0943   0.0000   0.0000   0.0000   0.2682
  11.700   1.4120   0.02952   0.02233  -0.0491  0.1281  1.0000  -4.1372   0.0000   0.0000   0.0000   0.2675
  11.800   1.4146   0.03014   0.02293  -0.0485  0.1250  1.0000  -4.1743   0.0000   0.0000   0.0000   0.2669
  11.900   1.4183   0.03070   0.02351  -0.0480  0.1215  1.0000  -4.2139   0.0000   0.0000   0.0000   0.2663
  12.000   1.4214   0.03130   0.02411  -0.0475  0.1182  1.0000  -4.2523   0.0000   0.0000   0.0000   0.2657
  12.100   1.4234   0.03199   0.02478  -0.0469  0.1155  1.0000  -4.2872   0.0000   0.0000   0.0000   0.2650
  12.200   1.4272   0.03255   0.02537  -0.0465  0.1121  1.0000  -4.3274   0.0000   0.0000   0.0000   0.2644
  12.300   1.4290   0.03327   0.02607  -0.0459  0.1094  1.0000  -4.3617   0.0000   0.0000   0.0000   0.2638
  12.400   1.4319   0.03391   0.02673  -0.0454  0.1065  1.0000  -4.3997   0.0000   0.0000   0.0000   0.2632
  12.500   1.4345   0.03458   0.02741  -0.0450  0.1036  1.0000  -4.4394   0.0000   0.0000   0.0000   0.2626
  12.600   1.4352   0.03541   0.02821  -0.0444  0.1014  1.0000  -4.4726   0.0000   0.0000   0.0000   0.2620
  12.700   1.4387   0.03602   0.02886  -0.0440  0.0984  1.0000  -4.5146   0.0000   0.0000   0.0000   0.2615
  12.800   1.4403   0.03679   0.02964  -0.0435  0.0961  1.0000  -4.5508   0.0000   0.0000   0.0000   0.2609
  12.900   1.4409   0.03766   0.03048  -0.0430  0.0940  1.0000  -4.5833   0.0000   0.0000   0.0000   0.2604
  13.000   1.4438   0.03833   0.03120  -0.0426  0.0913  1.0000  -4.6231   0.0000   0.0000   0.0000   0.2598
  13.100   1.4449   0.03917   0.03204  -0.0421  0.0893  1.0000  -4.6572   0.0000   0.0000   0.0000   0.2593
  13.200   1.4452   0.04008   0.03293  -0.0416  0.0874  1.0000  -4.6884   0.0000   0.0000   0.0000   0.2587
  13.300   1.4478   0.04080   0.03371  -0.0412  0.0850  1.0000  -4.7266   0.0000   0.0000   0.0000   0.2582
  13.400   1.4487   0.04168   0.03459  -0.0408  0.0831  1.0000  -4.7599   0.0000   0.0000   0.0000   0.2577
  13.500   1.4482   0.04268   0.03557  -0.0404  0.0817  1.0000  -4.7880   0.0000   0.0000   0.0000   0.2572
  13.600   1.4506   0.04345   0.03639  -0.0400  0.0795  1.0000  -4.8247   0.0000   0.0000   0.0000   0.2567
  13.700   1.4516   0.04434   0.03730  -0.0397  0.0777  1.0000  -4.8576   0.0000   0.0000   0.0000   0.2563
  13.800   1.4511   0.04538   0.03832  -0.0393  0.0764  1.0000  -4.8857   0.0000   0.0000   0.0000   0.2558
  13.900   1.4520   0.04631   0.03928  -0.0389  0.0747  1.0000  -4.9169   0.0000   0.0000   0.0000   0.2553
  14.000   1.4533   0.04721   0.04022  -0.0386  0.0730  1.0000  -4.9497   0.0000   0.0000   0.0000   0.2549
  14.100   1.4535   0.04822   0.04126  -0.0383  0.0717  1.0000  -4.9798   0.0000   0.0000   0.0000   0.2545
  14.200   1.4525   0.04936   0.04237  -0.0380  0.0706  1.0000  -5.0053   0.0000   0.0000   0.0000   0.2541
  14.300   1.4540   0.05028   0.04335  -0.0378  0.0690  1.0000  -5.0374   0.0000   0.0000   0.0000   0.2537
  14.400   1.4549   0.05128   0.04438  -0.0375  0.0676  1.0000  -5.0683   0.0000   0.0000   0.0000   0.2533
  14.500   1.4550   0.05235   0.04546  -0.0373  0.0664  1.0000  -5.0974   0.0000   0.0000   0.0000   0.2529
  14.600   1.4541   0.05352   0.04661  -0.0371  0.0655  1.0000  -5.1228   0.0000   0.0000   0.0000   0.2526
  14.700   1.4551   0.05454   0.04768  -0.0369  0.0642  1.0000  -5.1523   0.0000   0.0000   0.0000   0.2522
  14.800   1.4559   0.05559   0.04877  -0.0368  0.0629  1.0000  -5.1819   0.0000   0.0000   0.0000   0.2519
  14.900   1.4561   0.05669   0.04989  -0.0366  0.0619  1.0000  -5.2106   0.0000   0.0000   0.0000   0.2516
  15.000   1.4558   0.05785   0.05104  -0.0365  0.0611  1.0000  -5.2379   0.0000   0.0000   0.0000   0.2513
  15.100   1.4554   0.05901   0.05220  -0.0363  0.0602  1.0000  -5.2658   0.0000   0.0000   0.0000   0.2509
  15.200   1.4562   0.06010   0.05336  -0.0362  0.0591  1.0000  -5.2974   0.0000   0.0000   0.0000   0.2506
  15.300   1.4566   0.06123   0.05452  -0.0361  0.0581  1.0000  -5.3286   0.0000   0.0000   0.0000   0.2504
  15.400   1.4568   0.06238   0.05569  -0.0361  0.0573  1.0000  -5.3598   0.0000   0.0000   0.0000   0.2501
  15.500   1.4567   0.06355   0.05685  -0.0360  0.0566  1.0000  -5.3904   0.0000   0.0000   0.0000   0.2498
  15.600   1.4563   0.06470   0.05798  -0.0358  0.0560  1.0000  -5.4199   0.0000   0.0000   0.0000   0.2495
  15.700   1.4568   0.06588   0.05924  -0.0358  0.0551  1.0000  -5.4486   0.0000   0.0000   0.0000   0.2493
  15.800   1.4571   0.06705   0.06045  -0.0358  0.0543  1.0000  -5.4783   0.0000   0.0000   0.0000   0.2490
  15.900   1.4574   0.06822   0.06165  -0.0358  0.0536  1.0000  -5.5086   0.0000   0.0000   0.0000   0.2488
  16.000   1.4577   0.06938   0.06282  -0.0358  0.0529  1.0000  -5.5399   0.0000   0.0000   0.0000   0.2485
  16.100   1.4581   0.07050   0.06393  -0.0357  0.0524  1.0000  -5.5722   0.0000   0.0000   0.0000   0.2483
  16.200   1.4588   0.07151   0.06490  -0.0355  0.0518  1.0000  -5.6065   0.0000   0.0000   0.0000   0.2479
  16.300   1.4587   0.07280   0.06628  -0.0356  0.0512  1.0000  -5.6316   0.0000   0.0000   0.0000   0.2478
  16.400   1.4589   0.07404   0.06758  -0.0357  0.0505  1.0000  -5.6589   0.0000   0.0000   0.0000   0.2476
  16.500   1.4593   0.07523   0.06881  -0.0357  0.0499  1.0000  -5.6882   0.0000   0.0000   0.0000   0.2474
  16.600   1.4598   0.07640   0.07000  -0.0357  0.0493  1.0000  -5.7191   0.0000   0.0000   0.0000   0.2472
  16.700   1.4606   0.07750   0.07112  -0.0358  0.0488  1.0000  -5.7522   0.0000   0.0000   0.0000   0.2469
  16.800   1.4619   0.07850   0.07211  -0.0357  0.0484  1.0000  -5.7886   0.0000   0.0000   0.0000   0.2467
  16.900   1.4642   0.07927   0.07283  -0.0355  0.0479  1.0000  -5.8309   0.0000   0.0000   0.0000   0.2462
  17.000   1.4637   0.08065   0.07428  -0.0356  0.0474  1.0000  -5.8531   0.0000   0.0000   0.0000   0.2461
  17.100   1.4634   0.08199   0.07570  -0.0358  0.0469  1.0000  -5.8767   0.0000   0.0000   0.0000   0.2460
  17.200   1.4634   0.08328   0.07704  -0.0359  0.0464  1.0000  -5.9028   0.0000   0.0000   0.0000   0.2459
  17.300   1.4638   0.08449   0.07829  -0.0361  0.0459  1.0000  -5.9320   0.0000   0.0000   0.0000   0.2457
  17.400   1.4646   0.08563   0.07945  -0.0362  0.0455  1.0000  -5.9643   0.0000   0.0000   0.0000   0.2456
  17.500   1.4660   0.08666   0.08048  -0.0362  0.0450  1.0000  -6.0078   0.0000   0.0000   0.0000   0.2454
  17.600   1.4684   0.08749   0.08128  -0.0362  0.0446  1.0000  -6.0585   0.0000   0.0000   0.0000   0.2450
  17.700   1.4730   0.08788   0.08161  -0.0358  0.0442  1.0000  -6.1223   0.0000   0.0000   0.0000   0.2445
  17.800   1.4710   0.08955   0.08338  -0.0362  0.0438  1.0000  -6.1420   0.0000   0.0000   0.0000   0.2446
  17.900   1.4698   0.09109   0.08500  -0.0366  0.0434  1.0000  -6.1664   0.0000   0.0000   0.0000   0.2446
  18.000   1.4691   0.09252   0.08649  -0.0369  0.0430  1.0000  -6.1949   0.0000   0.0000   0.0000   0.2446
  18.100   1.4691   0.09385   0.08787  -0.0372  0.0426  1.0000  -6.2273   0.0000   0.0000   0.0000   0.2445
  18.200   1.4694   0.09510   0.08916  -0.0374  0.0423  1.0000  -6.2630   0.0000   0.0000   0.0000   0.2444
  18.300   1.4705   0.09621   0.09030  -0.0376  0.0419  1.0000  -6.3036   0.0000   0.0000   0.0000   0.2443
  18.400   1.4725   0.09716   0.09124  -0.0377  0.0415  1.0000  -6.3508   0.0000   0.0000   0.0000   0.2441
  18.500   1.4759   0.09784   0.09190  -0.0376  0.0412  1.0000  -6.4102   0.0000   0.0000   0.0000   0.2438
  18.600   1.4822   0.09794   0.09194  -0.0371  0.0408  1.0000  -6.4994   0.0000   0.0000   0.0000   0.2431
  18.700   1.4817   0.09932   0.09338  -0.0374  0.0405  1.0000  -6.5367   0.0000   0.0000   0.0000   0.2431
  18.800   1.4797   0.10102   0.09516  -0.0380  0.0403  1.0000  -6.5620   0.0000   0.0000   0.0000   0.2432
  18.900   1.4784   0.10259   0.09682  -0.0385  0.0400  1.0000  -6.5919   0.0000   0.0000   0.0000   0.2433
  19.000   1.4775   0.10410   0.09840  -0.0390  0.0397  1.0000  -6.6246   0.0000   0.0000   0.0000   0.2434
  19.100   1.4769   0.10554   0.09990  -0.0394  0.0395  1.0000  -6.6603   0.0000   0.0000   0.0000   0.2435
  19.200   1.4768   0.10690   0.10131  -0.0399  0.0392  1.0000  -6.6994   0.0000   0.0000   0.0000   0.2435
  19.300   1.4771   0.10818   0.10263  -0.0403  0.0389  1.0000  -6.7422   0.0000   0.0000   0.0000   0.2436
  19.400   1.4780   0.10937   0.10385  -0.0406  0.0387  1.0000  -6.7891   0.0000   0.0000   0.0000   0.2435
  19.500   1.4794   0.11044   0.10494  -0.0409  0.0384  1.0000  -6.8413   0.0000   0.0000   0.0000   0.2434
  19.600   1.4818   0.11132   0.10583  -0.0411  0.0382  1.0000  -6.9015   0.0000   0.0000   0.0000   0.2433
  19.700   1.4864   0.11177   0.10626  -0.0410  0.0379  1.0000  -6.9789   0.0000   0.0000   0.0000   0.2429
  19.800   1.4968   0.11108   0.10546  -0.0399  0.0375  1.0000  -7.1031   0.0000   0.0000   0.0000   0.2418
  19.900   1.4923   0.11327   0.10776  -0.0410  0.0374  1.0000  -7.1064   0.0000   0.0000   0.0000   0.2423
  20.000   1.4882   0.11540   0.11000  -0.0421  0.0372  1.0000  -7.1121   0.0000   0.0000   0.0000   0.2428


