xflr5 v6.57

 Calculated polar for: QX0123

 1 1 Reynolds number fixed          Mach number fixed         

 xtrf =   1.000 (top)        1.000 (bottom)
 Mach =   0.000     Re =     0.940 e 6     Ncrit =   9.000

  alpha     CL        CD       CDp       Cm    Top Xtr Bot Xtr   Cpmin    Chinge    XCp    
 ------- -------- --------- --------- -------- ------- ------- -------- --------- ---------
 -10.000  -0.7244   0.01683   0.01171  -0.0797  0.8463  0.0206  -6.5176   0.0000   0.0000   0.0000   0.1269
  -9.900  -0.7137   0.01671   0.01156  -0.0797  0.8450  0.0210  -6.4101   0.0000   0.0000   0.0000   0.1253
  -9.800  -0.7030   0.01659   0.01143  -0.0797  0.8437  0.0213  -6.3028   0.0000   0.0000   0.0000   0.1237
  -9.700  -0.6922   0.01648   0.01129  -0.0797  0.8426  0.0216  -6.1961   0.0000   0.0000   0.0000   0.1220
  -9.600  -0.6815   0.01637   0.01116  -0.0797  0.8414  0.0219  -6.0905   0.0000   0.0000   0.0000   0.1202
  -9.500  -0.6707   0.01626   0.01103  -0.0797  0.8402  0.0222  -5.9858   0.0000   0.0000   0.0000   0.1184
  -9.400  -0.6598   0.01613   0.01088  -0.0797  0.8389  0.0225  -5.8817   0.0000   0.0000   0.0000   0.1165
  -9.300  -0.6489   0.01599   0.01072  -0.0797  0.8375  0.0228  -5.7793   0.0000   0.0000   0.0000   0.1145
  -9.200  -0.6381   0.01584   0.01054  -0.0797  0.8362  0.0230  -5.6790   0.0000   0.0000   0.0000   0.1124
  -9.100  -0.6274   0.01568   0.01036  -0.0797  0.8348  0.0232  -5.5799   0.0000   0.0000   0.0000   0.1104
  -9.000  -0.6166   0.01553   0.01018  -0.0797  0.8335  0.0234  -5.4812   0.0000   0.0000   0.0000   0.1082
  -8.900  -0.6059   0.01538   0.01000  -0.0797  0.8323  0.0235  -5.3830   0.0000   0.0000   0.0000   0.1060
  -8.800  -0.5951   0.01523   0.00982  -0.0797  0.8311  0.0236  -5.2855   0.0000   0.0000   0.0000   0.1037
  -8.700  -0.5843   0.01510   0.00965  -0.0796  0.8300  0.0237  -5.1885   0.0000   0.0000   0.0000   0.1013
  -8.600  -0.5735   0.01496   0.00949  -0.0796  0.8287  0.0238  -5.0919   0.0000   0.0000   0.0000   0.0987
  -8.500  -0.5625   0.01481   0.00932  -0.0796  0.8273  0.0239  -4.9953   0.0000   0.0000   0.0000   0.0960
  -8.400  -0.5515   0.01466   0.00916  -0.0796  0.8258  0.0240  -4.8996   0.0000   0.0000   0.0000   0.0932
  -8.300  -0.5406   0.01452   0.00900  -0.0796  0.8244  0.0241  -4.8046   0.0000   0.0000   0.0000   0.0903
  -8.200  -0.5296   0.01438   0.00883  -0.0796  0.8229  0.0241  -4.7104   0.0000   0.0000   0.0000   0.0873
  -8.100  -0.5187   0.01424   0.00867  -0.0796  0.8216  0.0242  -4.6170   0.0000   0.0000   0.0000   0.0841
  -8.000  -0.5090   0.01380   0.00817  -0.0795  0.8203  0.0244  -4.5560   0.0000   0.0000   0.0000   0.0814
  -7.900  -0.4991   0.01343   0.00774  -0.0794  0.8191  0.0247  -4.4927   0.0000   0.0000   0.0000   0.0785
  -7.800  -0.4888   0.01313   0.00739  -0.0794  0.8179  0.0249  -4.4258   0.0000   0.0000   0.0000   0.0753
  -7.700  -0.4782   0.01285   0.00708  -0.0793  0.8165  0.0252  -4.3560   0.0000   0.0000   0.0000   0.0717
  -7.600  -0.4675   0.01261   0.00682  -0.0793  0.8150  0.0254  -4.2846   0.0000   0.0000   0.0000   0.0679
  -7.500  -0.4566   0.01240   0.00659  -0.0793  0.8135  0.0257  -4.2123   0.0000   0.0000   0.0000   0.0639
  -7.400  -0.4457   0.01221   0.00637  -0.0793  0.8121  0.0260  -4.1392   0.0000   0.0000   0.0000   0.0596
  -7.300  -0.4348   0.01203   0.00618  -0.0793  0.8107  0.0262  -4.0657   0.0000   0.0000   0.0000   0.0551
  -7.200  -0.4238   0.01188   0.00600  -0.0793  0.8094  0.0265  -3.9919   0.0000   0.0000   0.0000   0.0503
  -7.100  -0.4127   0.01173   0.00583  -0.0793  0.8082  0.0267  -3.9180   0.0000   0.0000   0.0000   0.0453
  -7.000  -0.4017   0.01160   0.00568  -0.0793  0.8070  0.0270  -3.8441   0.0000   0.0000   0.0000   0.0400
  -6.900  -0.3905   0.01147   0.00553  -0.0793  0.8057  0.0273  -3.7700   0.0000   0.0000   0.0000   0.0342
  -6.800  -0.3792   0.01134   0.00539  -0.0793  0.8043  0.0276  -3.6961   0.0000   0.0000   0.0000   0.0280
  -6.700  -0.3679   0.01122   0.00526  -0.0793  0.8029  0.0279  -3.6227   0.0000   0.0000   0.0000   0.0214
  -6.600  -0.3566   0.01110   0.00513  -0.0794  0.8014  0.0282  -3.5498   0.0000   0.0000   0.0000   0.0144
  -6.500  -0.3453   0.01098   0.00500  -0.0794  0.8000  0.0286  -3.4774   0.0000   0.0000   0.0000   0.0070
  -6.400  -0.3341   0.01088   0.00487  -0.0794  0.7987  0.0290  -3.4057   0.0000   0.0000   0.0000  -0.0009
  -6.300  -0.3228   0.01077   0.00475  -0.0794  0.7974  0.0294  -3.3346   0.0000   0.0000   0.0000  -0.0094
  -6.200  -0.3115   0.01068   0.00463  -0.0794  0.7962  0.0299  -3.2641   0.0000   0.0000   0.0000  -0.0184
  -6.100  -0.3002   0.01059   0.00452  -0.0794  0.7948  0.0304  -3.1939   0.0000   0.0000   0.0000  -0.0283
  -6.000  -0.2887   0.01049   0.00442  -0.0794  0.7933  0.0310  -3.1235   0.0000   0.0000   0.0000  -0.0392
  -5.900  -0.2771   0.01042   0.00434  -0.0795  0.7917  0.0314  -3.0526   0.0000   0.0000   0.0000  -0.0510
  -5.800  -0.2657   0.01034   0.00426  -0.0795  0.7901  0.0319  -2.9827   0.0000   0.0000   0.0000  -0.0638
  -5.700  -0.2548   0.01009   0.00400  -0.0795  0.7885  0.0347  -2.9230   0.0000   0.0000   0.0000  -0.0768
  -5.600  -0.2434   0.00999   0.00391  -0.0795  0.7871  0.0363  -2.8541   0.0000   0.0000   0.0000  -0.0918
  -5.500  -0.2320   0.00992   0.00383  -0.0796  0.7858  0.0377  -2.7853   0.0000   0.0000   0.0000  -0.1083
  -5.400  -0.2205   0.00987   0.00375  -0.0796  0.7846  0.0389  -2.7169   0.0000   0.0000   0.0000  -0.1266
  -5.300  -0.2090   0.00980   0.00367  -0.0796  0.7832  0.0398  -2.6494   0.0000   0.0000   0.0000  -0.1472
  -5.200  -0.1977   0.00963   0.00352  -0.0797  0.7816  0.0423  -2.5964   0.0000   0.0000   0.0000  -0.1696
  -5.100  -0.1863   0.00954   0.00344  -0.0797  0.7800  0.0439  -2.5423   0.0000   0.0000   0.0000  -0.1952
  -5.000  -0.1748   0.00946   0.00337  -0.0798  0.7785  0.0453  -2.4880   0.0000   0.0000   0.0000  -0.2244
  -4.900  -0.1632   0.00940   0.00330  -0.0798  0.7769  0.0464  -2.4337   0.0000   0.0000   0.0000  -0.2576
  -4.800  -0.1517   0.00935   0.00323  -0.0798  0.7755  0.0473  -2.3793   0.0000   0.0000   0.0000  -0.2960
  -4.700  -0.1403   0.00925   0.00312  -0.0799  0.7742  0.0492  -2.3275   0.0000   0.0000   0.0000  -0.3398
  -4.600  -0.1289   0.00917   0.00305  -0.0799  0.7729  0.0511  -2.2743   0.0000   0.0000   0.0000  -0.3915
  -4.500  -0.1173   0.00910   0.00298  -0.0799  0.7713  0.0528  -2.2208   0.0000   0.0000   0.0000  -0.4548
  -4.400  -0.1057   0.00903   0.00292  -0.0800  0.7696  0.0545  -2.1675   0.0000   0.0000   0.0000  -0.5321
  -4.300  -0.0941   0.00898   0.00286  -0.0801  0.7678  0.0560  -2.1148   0.0000   0.0000   0.0000  -0.6283
  -4.200  -0.0826   0.00887   0.00277  -0.0801  0.7662  0.0588  -2.0632   0.0000   0.0000   0.0000  -0.7496
  -4.100  -0.0711   0.00880   0.00270  -0.0801  0.7646  0.0614  -2.0111   0.0000   0.0000   0.0000  -0.9106
  -4.000  -0.0596   0.00875   0.00264  -0.0802  0.7630  0.0637  -1.9593   0.0000   0.0000   0.0000  -1.1344
  -3.900  -0.0482   0.00867   0.00257  -0.0802  0.7616  0.0675  -1.9084   0.0000   0.0000   0.0000  -1.4605
  -3.800  -0.0366   0.00860   0.00252  -0.0803  0.7596  0.0711  -1.8570   0.0000   0.0000   0.0000  -2.0042
  -3.700  -0.0250   0.00852   0.00246  -0.0803  0.7576  0.0754  -1.8060   0.0000   0.0000   0.0000  -3.0449
  -3.600  -0.0134   0.00846   0.00241  -0.0804  0.7557  0.0797  -1.7553   0.0000   0.0000   0.0000  -5.8887
  -3.500  -0.0019   0.00838   0.00236  -0.0805  0.7539  0.0844  -1.7050   0.0000   0.0000   0.0000  -42.9525
  -3.400   0.0097   0.00834   0.00231  -0.0805  0.7523  0.0886  -1.6549   0.0000   0.0000   0.0000   8.7722
  -3.300   0.0211   0.00828   0.00226  -0.0805  0.7507  0.0931  -1.6055   0.0000   0.0000   0.0000   4.1491
  -3.200   0.0328   0.00823   0.00221  -0.0806  0.7489  0.0972  -1.5560   0.0000   0.0000   0.0000   2.7614
  -3.100   0.0444   0.00815   0.00217  -0.0807  0.7469  0.1019  -1.5072   0.0000   0.0000   0.0000   2.1060
  -3.000   0.0560   0.00809   0.00212  -0.0808  0.7450  0.1063  -1.4587   0.0000   0.0000   0.0000   1.7210
  -2.900   0.0676   0.00803   0.00208  -0.0808  0.7432  0.1117  -1.4106   0.0000   0.0000   0.0000   1.4691
  -2.800   0.0791   0.00797   0.00204  -0.0809  0.7415  0.1177  -1.3629   0.0000   0.0000   0.0000   1.2911
  -2.700   0.0906   0.00793   0.00200  -0.0809  0.7398  0.1239  -1.3157   0.0000   0.0000   0.0000   1.1585
  -2.600   0.1023   0.00788   0.00196  -0.0810  0.7377  0.1301  -1.2687   0.0000   0.0000   0.0000   1.0549
  -2.500   0.1139   0.00781   0.00193  -0.0811  0.7354  0.1363  -1.2222   0.0000   0.0000   0.0000   0.9729
  -2.400   0.1254   0.00775   0.00189  -0.0811  0.7332  0.1432  -1.1763   0.0000   0.0000   0.0000   0.9062
  -2.300   0.1369   0.00768   0.00184  -0.0812  0.7311  0.1517  -1.1308   0.0000   0.0000   0.0000   0.8509
  -2.200   0.1484   0.00762   0.00181  -0.0812  0.7292  0.1623  -1.0859   0.0000   0.0000   0.0000   0.8044
  -2.100   0.1600   0.00755   0.00178  -0.0813  0.7271  0.1746  -1.0413   0.0000   0.0000   0.0000   0.7644
  -2.000   0.1716   0.00748   0.00176  -0.0814  0.7248  0.1869  -0.9969   0.0000   0.0000   0.0000   0.7297
  -1.900   0.1831   0.00742   0.00173  -0.0815  0.7226  0.1985  -0.9532   0.0000   0.0000   0.0000   0.6995
  -1.800   0.1946   0.00735   0.00170  -0.0815  0.7205  0.2100  -0.9099   0.0000   0.0000   0.0000   0.6728
  -1.600   0.2177   0.00725   0.00165  -0.0817  0.7166  0.2330  -0.8247   0.0000   0.0000   0.0000   0.6280
  -1.500   0.2293   0.00719   0.00163  -0.0818  0.7141  0.2456  -0.7825   0.0000   0.0000   0.0000   0.6088
  -1.400   0.2409   0.00713   0.00161  -0.0818  0.7116  0.2584  -0.7516   0.0000   0.0000   0.0000   0.5916
  -1.300   0.2524   0.00707   0.00159  -0.0819  0.7092  0.2720  -0.7224   0.0000   0.0000   0.0000   0.5760
  -1.200   0.2638   0.00702   0.00156  -0.0819  0.7071  0.2864  -0.6934   0.0000   0.0000   0.0000   0.5618
  -1.100   0.2754   0.00695   0.00155  -0.0820  0.7044  0.3023  -0.6645   0.0000   0.0000   0.0000   0.5487
  -1.000   0.2870   0.00688   0.00154  -0.0821  0.7018  0.3197  -0.6430   0.0000   0.0000   0.0000   0.5367
  -0.900   0.2985   0.00682   0.00152  -0.0822  0.6994  0.3382  -0.6510   0.0000   0.0000   0.0000   0.5257
  -0.800   0.3099   0.00675   0.00150  -0.0823  0.6971  0.3587  -0.6590   0.0000   0.0000   0.0000   0.5155
  -0.700   0.3213   0.00666   0.00149  -0.0823  0.6947  0.3846  -0.6671   0.0000   0.0000   0.0000   0.5061
  -0.600   0.3327   0.00656   0.00148  -0.0824  0.6917  0.4150  -0.6751   0.0000   0.0000   0.0000   0.4973
  -0.500   0.3440   0.00645   0.00147  -0.0825  0.6887  0.4493  -0.6841   0.0000   0.0000   0.0000   0.4891
  -0.400   0.3551   0.00635   0.00147  -0.0825  0.6859  0.4851  -0.6930   0.0000   0.0000   0.0000   0.4815
  -0.300   0.3664   0.00625   0.00147  -0.0826  0.6828  0.5199  -0.7020   0.0000   0.0000   0.0000   0.4743
  -0.200   0.3777   0.00617   0.00147  -0.0826  0.6793  0.5505  -0.7111   0.0000   0.0000   0.0000   0.4674
  -0.100   0.3889   0.00610   0.00147  -0.0826  0.6760  0.5791  -0.7217   0.0000   0.0000   0.0000   0.4610
   0.000   0.4002   0.00604   0.00147  -0.0826  0.6728  0.6057  -0.7322   0.0000   0.0000   0.0000   0.4548
   0.100   0.4115   0.00597   0.00148  -0.0826  0.6691  0.6326  -0.7428   0.0000   0.0000   0.0000   0.4490
   0.200   0.4226   0.00592   0.00149  -0.0826  0.6656  0.6573  -0.7534   0.0000   0.0000   0.0000   0.4435
   0.300   0.4338   0.00589   0.00151  -0.0826  0.6622  0.6804  -0.7640   0.0000   0.0000   0.0000   0.4383
   0.400   0.4452   0.00585   0.00152  -0.0826  0.6584  0.6986  -0.7747   0.0000   0.0000   0.0000   0.4333
   0.500   0.4564   0.00583   0.00153  -0.0825  0.6549  0.7150  -0.7853   0.0000   0.0000   0.0000   0.4285
   0.600   0.4677   0.00582   0.00154  -0.0825  0.6518  0.7305  -0.7960   0.0000   0.0000   0.0000   0.4239
   0.700   0.4790   0.00579   0.00156  -0.0825  0.6482  0.7451  -0.8068   0.0000   0.0000   0.0000   0.4196
   0.800   0.4902   0.00578   0.00157  -0.0825  0.6447  0.7585  -0.8175   0.0000   0.0000   0.0000   0.4155
   0.900   0.5014   0.00578   0.00158  -0.0824  0.6413  0.7718  -0.8282   0.0000   0.0000   0.0000   0.4115
   1.000   0.5126   0.00576   0.00160  -0.0823  0.6374  0.7853  -0.8390   0.0000   0.0000   0.0000   0.4077
   1.100   0.5237   0.00575   0.00162  -0.0823  0.6336  0.7981  -0.8504   0.0000   0.0000   0.0000   0.4040
   1.200   0.5347   0.00575   0.00163  -0.0822  0.6298  0.8107  -0.8618   0.0000   0.0000   0.0000   0.4005
   1.300   0.5458   0.00575   0.00165  -0.0821  0.6256  0.8232  -0.8733   0.0000   0.0000   0.0000   0.3971
   1.400   0.5566   0.00575   0.00167  -0.0820  0.6215  0.8361  -0.8846   0.0000   0.0000   0.0000   0.3938
   1.500   0.5674   0.00574   0.00169  -0.0818  0.6169  0.8486  -0.8960   0.0000   0.0000   0.0000   0.3906
   1.600   0.5780   0.00575   0.00171  -0.0816  0.6120  0.8614  -0.9077   0.0000   0.0000   0.0000   0.3875
   1.700   0.5885   0.00575   0.00173  -0.0814  0.6073  0.8744  -0.9211   0.0000   0.0000   0.0000   0.3845
   1.800   0.5989   0.00575   0.00176  -0.0812  0.6024  0.8879  -0.9344   0.0000   0.0000   0.0000   0.3816
   1.900   0.6088   0.00576   0.00178  -0.0808  0.5978  0.9020  -0.9476   0.0000   0.0000   0.0000   0.3787
   2.000   0.6186   0.00577   0.00180  -0.0804  0.5927  0.9165  -0.9611   0.0000   0.0000   0.0000   0.3758
   2.100   0.6282   0.00579   0.00182  -0.0800  0.5878  0.9309  -0.9745   0.0000   0.0000   0.0000   0.3730
   2.200   0.6385   0.00579   0.00184  -0.0797  0.5823  0.9454  -0.9885   0.0000   0.0000   0.0000   0.3704
   2.300   0.6500   0.00583   0.00186  -0.0797  0.5768  0.9586  -1.0039   0.0000   0.0000   0.0000   0.3681
   2.400   0.6633   0.00585   0.00188  -0.0801  0.5708  0.9703  -1.0206   0.0000   0.0000   0.0000   0.3662
   2.500   0.6778   0.00590   0.00189  -0.0808  0.5652  0.9805  -1.0384   0.0000   0.0000   0.0000   0.3645
   2.600   0.6932   0.00593   0.00191  -0.0817  0.5595  0.9901  -1.0568   0.0000   0.0000   0.0000   0.3631
   2.700   0.7086   0.00598   0.00193  -0.0827  0.5542  0.9997  -1.0754   0.0000   0.0000   0.0000   0.3618
   2.800   0.7198   0.00603   0.00196  -0.0827  0.5487  1.0000  -1.0907   0.0000   0.0000   0.0000   0.3599
   2.900   0.7307   0.00610   0.00199  -0.0827  0.5436  1.0000  -1.1067   0.0000   0.0000   0.0000   0.3580
   3.000   0.7418   0.00615   0.00202  -0.0827  0.5380  1.0000  -1.1232   0.0000   0.0000   0.0000   0.3562
   3.100   0.7527   0.00621   0.00205  -0.0826  0.5328  1.0000  -1.1396   0.0000   0.0000   0.0000   0.3545
   3.200   0.7638   0.00627   0.00208  -0.0826  0.5271  1.0000  -1.1563   0.0000   0.0000   0.0000   0.3528
   3.300   0.7748   0.00634   0.00212  -0.0826  0.5218  1.0000  -1.1728   0.0000   0.0000   0.0000   0.3511
   3.400   0.7858   0.00639   0.00217  -0.0826  0.5162  1.0000  -1.1908   0.0000   0.0000   0.0000   0.3495
   3.500   0.7967   0.00647   0.00221  -0.0826  0.5109  1.0000  -1.2094   0.0000   0.0000   0.0000   0.3479
   3.600   0.8078   0.00653   0.00225  -0.0826  0.5049  1.0000  -1.2281   0.0000   0.0000   0.0000   0.3464
   3.700   0.8187   0.00660   0.00229  -0.0826  0.4991  1.0000  -1.2468   0.0000   0.0000   0.0000   0.3449
   3.800   0.8296   0.00667   0.00234  -0.0825  0.4924  1.0000  -1.2655   0.0000   0.0000   0.0000   0.3434
   3.900   0.8405   0.00675   0.00238  -0.0825  0.4857  1.0000  -1.2843   0.0000   0.0000   0.0000   0.3420
   4.000   0.8512   0.00684   0.00243  -0.0825  0.4789  1.0000  -1.3030   0.0000   0.0000   0.0000   0.3406
   4.100   0.8621   0.00691   0.00248  -0.0825  0.4722  1.0000  -1.3220   0.0000   0.0000   0.0000   0.3393
   4.200   0.8729   0.00699   0.00253  -0.0824  0.4659  1.0000  -1.3438   0.0000   0.0000   0.0000   0.3379
   4.300   0.8837   0.00708   0.00259  -0.0824  0.4595  1.0000  -1.3657   0.0000   0.0000   0.0000   0.3366
   4.400   0.8945   0.00715   0.00264  -0.0824  0.4535  1.0000  -1.3878   0.0000   0.0000   0.0000   0.3353
   4.600   0.9161   0.00732   0.00275  -0.0823  0.4407  1.0000  -1.4321   0.0000   0.0000   0.0000   0.3329
   4.700   0.9267   0.00742   0.00281  -0.0822  0.4344  1.0000  -1.4566   0.0000   0.0000   0.0000   0.3317
   4.800   0.9374   0.00751   0.00287  -0.0822  0.4273  1.0000  -1.4813   0.0000   0.0000   0.0000   0.3305
   4.900   0.9481   0.00760   0.00294  -0.0822  0.4204  1.0000  -1.5060   0.0000   0.0000   0.0000   0.3294
   5.000   0.9586   0.00771   0.00300  -0.0821  0.4133  1.0000  -1.5306   0.0000   0.0000   0.0000   0.3282
   5.100   0.9692   0.00780   0.00307  -0.0820  0.4060  1.0000  -1.5555   0.0000   0.0000   0.0000   0.3271
   5.200   0.9797   0.00790   0.00316  -0.0820  0.3992  1.0000  -1.5804   0.0000   0.0000   0.0000   0.3260
   5.300   0.9901   0.00802   0.00324  -0.0819  0.3922  1.0000  -1.6065   0.0000   0.0000   0.0000   0.3249
   5.400   1.0007   0.00811   0.00331  -0.0818  0.3850  1.0000  -1.6334   0.0000   0.0000   0.0000   0.3239
   5.500   1.0111   0.00823   0.00339  -0.0817  0.3778  1.0000  -1.6602   0.0000   0.0000   0.0000   0.3229
   5.600   1.0213   0.00835   0.00347  -0.0816  0.3704  1.0000  -1.6868   0.0000   0.0000   0.0000   0.3218
   5.700   1.0317   0.00846   0.00355  -0.0816  0.3627  1.0000  -1.7139   0.0000   0.0000   0.0000   0.3208
   5.800   1.0420   0.00857   0.00363  -0.0815  0.3553  1.0000  -1.7437   0.0000   0.0000   0.0000   0.3198
   5.900   1.0522   0.00870   0.00372  -0.0814  0.3480  1.0000  -1.7754   0.0000   0.0000   0.0000   0.3188
   6.000   1.0624   0.00882   0.00380  -0.0813  0.3410  1.0000  -1.8074   0.0000   0.0000   0.0000   0.3179
   6.100   1.0727   0.00893   0.00389  -0.0812  0.3345  1.0000  -1.8397   0.0000   0.0000   0.0000   0.3169
   6.200   1.0828   0.00906   0.00398  -0.0811  0.3275  1.0000  -1.8717   0.0000   0.0000   0.0000   0.3160
   6.300   1.0929   0.00919   0.00408  -0.0809  0.3201  1.0000  -1.9040   0.0000   0.0000   0.0000   0.3151
   6.400   1.1029   0.00932   0.00418  -0.0808  0.3128  1.0000  -1.9402   0.0000   0.0000   0.0000   0.3142
   6.500   1.1128   0.00946   0.00428  -0.0807  0.3051  1.0000  -1.9821   0.0000   0.0000   0.0000   0.3133
   6.600   1.1226   0.00961   0.00439  -0.0805  0.2973  1.0000  -2.0240   0.0000   0.0000   0.0000   0.3124
   6.700   1.1325   0.00975   0.00449  -0.0804  0.2896  1.0000  -2.0666   0.0000   0.0000   0.0000   0.3115
   6.800   1.1423   0.00989   0.00460  -0.0802  0.2823  1.0000  -2.1092   0.0000   0.0000   0.0000   0.3106
   6.900   1.1519   0.01005   0.00471  -0.0801  0.2752  1.0000  -2.1516   0.0000   0.0000   0.0000   0.3097
   7.000   1.1617   0.01019   0.00482  -0.0799  0.2679  1.0000  -2.1946   0.0000   0.0000   0.0000   0.3089
   7.100   1.1713   0.01034   0.00494  -0.0797  0.2611  1.0000  -2.2420   0.0000   0.0000   0.0000   0.3081
   7.200   1.1807   0.01051   0.00509  -0.0795  0.2542  1.0000  -2.2912   0.0000   0.0000   0.0000   0.3072
   7.300   1.1903   0.01066   0.00521  -0.0793  0.2471  1.0000  -2.3413   0.0000   0.0000   0.0000   0.3064
   7.400   1.1998   0.01081   0.00533  -0.0791  0.2405  1.0000  -2.3914   0.0000   0.0000   0.0000   0.3056
   7.500   1.2091   0.01099   0.00547  -0.0789  0.2340  1.0000  -2.4413   0.0000   0.0000   0.0000   0.3047
   7.600   1.2186   0.01114   0.00559  -0.0787  0.2276  1.0000  -2.4921   0.0000   0.0000   0.0000   0.3039
   7.700   1.2279   0.01130   0.00572  -0.0785  0.2218  1.0000  -2.5429   0.0000   0.0000   0.0000   0.3031
   7.800   1.2370   0.01148   0.00586  -0.0783  0.2155  1.0000  -2.5933   0.0000   0.0000   0.0000   0.3023
   7.900   1.2463   0.01163   0.00599  -0.0781  0.2090  1.0000  -2.6448   0.0000   0.0000   0.0000   0.3015
   8.000   1.2553   0.01181   0.00613  -0.0778  0.2022  1.0000  -2.6956   0.0000   0.0000   0.0000   0.3007
   8.100   1.2639   0.01201   0.00629  -0.0775  0.1952  1.0000  -2.7460   0.0000   0.0000   0.0000   0.2999
   8.200   1.2729   0.01219   0.00643  -0.0772  0.1886  1.0000  -2.7974   0.0000   0.0000   0.0000   0.2992
   8.300   1.2817   0.01237   0.00658  -0.0770  0.1828  1.0000  -2.8488   0.0000   0.0000   0.0000   0.2984
   8.400   1.2903   0.01256   0.00674  -0.0767  0.1771  1.0000  -2.9000   0.0000   0.0000   0.0000   0.2976
   8.500   1.2992   0.01273   0.00689  -0.0764  0.1719  1.0000  -2.9523   0.0000   0.0000   0.0000   0.2968
   8.600   1.3076   0.01293   0.00705  -0.0760  0.1668  1.0000  -3.0033   0.0000   0.0000   0.0000   0.2961
   8.700   1.3164   0.01310   0.00720  -0.0758  0.1620  1.0000  -3.0561   0.0000   0.0000   0.0000   0.2953
   8.800   1.3246   0.01330   0.00737  -0.0754  0.1574  1.0000  -3.1074   0.0000   0.0000   0.0000   0.2945
   8.900   1.3333   0.01347   0.00753  -0.0751  0.1531  1.0000  -3.1602   0.0000   0.0000   0.0000   0.2938
   9.000   1.3412   0.01368   0.00771  -0.0747  0.1490  1.0000  -3.2113   0.0000   0.0000   0.0000   0.2930
   9.100   1.3499   0.01384   0.00789  -0.0744  0.1450  1.0000  -3.2649   0.0000   0.0000   0.0000   0.2923
   9.200   1.3578   0.01405   0.00807  -0.0740  0.1410  1.0000  -3.3163   0.0000   0.0000   0.0000   0.2915
   9.300   1.3662   0.01422   0.00823  -0.0737  0.1371  1.0000  -3.3696   0.0000   0.0000   0.0000   0.2908
   9.400   1.3738   0.01443   0.00842  -0.0732  0.1330  1.0000  -3.4211   0.0000   0.0000   0.0000   0.2900
   9.500   1.3813   0.01462   0.00859  -0.0727  0.1293  1.0000  -3.4724   0.0000   0.0000   0.0000   0.2892
   9.600   1.3882   0.01483   0.00879  -0.0722  0.1254  1.0000  -3.5221   0.0000   0.0000   0.0000   0.2884
   9.700   1.3951   0.01503   0.00898  -0.0716  0.1219  1.0000  -3.5724   0.0000   0.0000   0.0000   0.2876
   9.800   1.4020   0.01525   0.00918  -0.0710  0.1181  1.0000  -3.6224   0.0000   0.0000   0.0000   0.2868
   9.900   1.4086   0.01549   0.00940  -0.0705  0.1147  1.0000  -3.6721   0.0000   0.0000   0.0000   0.2859
  10.000   1.4154   0.01571   0.00961  -0.0699  0.1111  1.0000  -3.7224   0.0000   0.0000   0.0000   0.2852
  10.100   1.4216   0.01598   0.00986  -0.0693  0.1079  1.0000  -3.7715   0.0000   0.0000   0.0000   0.2844
  10.200   1.4285   0.01621   0.01008  -0.0688  0.1045  1.0000  -3.8225   0.0000   0.0000   0.0000   0.2836
  10.300   1.4344   0.01650   0.01035  -0.0682  0.1013  1.0000  -3.8707   0.0000   0.0000   0.0000   0.2828
  10.400   1.4411   0.01674   0.01059  -0.0677  0.0983  1.0000  -3.9218   0.0000   0.0000   0.0000   0.2821
  10.500   1.4470   0.01704   0.01087  -0.0671  0.0953  1.0000  -3.9705   0.0000   0.0000   0.0000   0.2814
  10.600   1.4535   0.01730   0.01113  -0.0666  0.0926  1.0000  -4.0209   0.0000   0.0000   0.0000   0.2806
  10.700   1.4596   0.01760   0.01141  -0.0661  0.0897  1.0000  -4.0706   0.0000   0.0000   0.0000   0.2799
  10.800   1.4655   0.01790   0.01171  -0.0655  0.0872  1.0000  -4.1198   0.0000   0.0000   0.0000   0.2792
  10.900   1.4719   0.01818   0.01199  -0.0651  0.0844  1.0000  -4.1707   0.0000   0.0000   0.0000   0.2785
  11.100   1.4837   0.01881   0.01262  -0.0640  0.0794  1.0000  -4.2700   0.0000   0.0000   0.0000   0.2771
  11.200   1.4893   0.01915   0.01294  -0.0635  0.0770  1.0000  -4.3189   0.0000   0.0000   0.0000   0.2764
  11.300   1.4951   0.01948   0.01327  -0.0630  0.0749  1.0000  -4.3686   0.0000   0.0000   0.0000   0.2757
  11.400   1.5009   0.01981   0.01360  -0.0625  0.0726  1.0000  -4.4186   0.0000   0.0000   0.0000   0.2751
  11.500   1.5059   0.02020   0.01397  -0.0619  0.0705  1.0000  -4.4660   0.0000   0.0000   0.0000   0.2744
  11.600   1.5120   0.02051   0.01429  -0.0615  0.0684  1.0000  -4.5171   0.0000   0.0000   0.0000   0.2737
  11.700   1.5173   0.02089   0.01467  -0.0610  0.0663  1.0000  -4.5656   0.0000   0.0000   0.0000   0.2731
  11.800   1.5226   0.02126   0.01504  -0.0604  0.0644  1.0000  -4.6145   0.0000   0.0000   0.0000   0.2724
  11.900   1.5280   0.02163   0.01541  -0.0600  0.0624  1.0000  -4.6638   0.0000   0.0000   0.0000   0.2718
  12.000   1.5326   0.02206   0.01583  -0.0594  0.0605  1.0000  -4.7130   0.0000   0.0000   0.0000   0.2711
  12.100   1.5382   0.02243   0.01620  -0.0589  0.0587  1.0000  -4.7666   0.0000   0.0000   0.0000   0.2705
  12.200   1.5428   0.02286   0.01663  -0.0584  0.0569  1.0000  -4.8175   0.0000   0.0000   0.0000   0.2698
  12.300   1.5476   0.02328   0.01706  -0.0579  0.0553  1.0000  -4.8687   0.0000   0.0000   0.0000   0.2692
  12.400   1.5526   0.02370   0.01748  -0.0574  0.0536  1.0000  -4.9208   0.0000   0.0000   0.0000   0.2686
  12.500   1.5566   0.02418   0.01795  -0.0568  0.0521  1.0000  -4.9699   0.0000   0.0000   0.0000   0.2679
  12.600   1.5616   0.02460   0.01838  -0.0564  0.0506  1.0000  -5.0224   0.0000   0.0000   0.0000   0.2673
  12.700   1.5661   0.02506   0.01885  -0.0559  0.0490  1.0000  -5.0731   0.0000   0.0000   0.0000   0.2667
  12.800   1.5699   0.02557   0.01935  -0.0553  0.0477  1.0000  -5.1215   0.0000   0.0000   0.0000   0.2661
  12.900   1.5746   0.02601   0.01982  -0.0549  0.0463  1.0000  -5.1734   0.0000   0.0000   0.0000   0.2655
  13.000   1.5784   0.02653   0.02034  -0.0544  0.0450  1.0000  -5.2223   0.0000   0.0000   0.0000   0.2649
  13.100   1.5821   0.02706   0.02087  -0.0538  0.0438  1.0000  -5.2705   0.0000   0.0000   0.0000   0.2643
  13.200   1.5865   0.02754   0.02136  -0.0534  0.0426  1.0000  -5.3213   0.0000   0.0000   0.0000   0.2637
  13.300   1.5900   0.02809   0.02192  -0.0528  0.0415  1.0000  -5.3691   0.0000   0.0000   0.0000   0.2631
  13.400   1.5932   0.02867   0.02250  -0.0523  0.0405  1.0000  -5.4158   0.0000   0.0000   0.0000   0.2625
  13.500   1.5973   0.02918   0.02303  -0.0519  0.0395  1.0000  -5.4659   0.0000   0.0000   0.0000   0.2620
  13.600   1.6007   0.02975   0.02361  -0.0514  0.0386  1.0000  -5.5134   0.0000   0.0000   0.0000   0.2614
  13.700   1.6033   0.03039   0.02426  -0.0509  0.0377  1.0000  -5.5580   0.0000   0.0000   0.0000   0.2608
  13.800   1.6067   0.03096   0.02485  -0.0504  0.0369  1.0000  -5.6056   0.0000   0.0000   0.0000   0.2602
  13.900   1.6100   0.03155   0.02545  -0.0499  0.0361  1.0000  -5.6532   0.0000   0.0000   0.0000   0.2597
  14.000   1.6126   0.03220   0.02612  -0.0495  0.0354  1.0000  -5.6982   0.0000   0.0000   0.0000   0.2591
  14.100   1.6146   0.03291   0.02683  -0.0489  0.0348  1.0000  -5.7406   0.0000   0.0000   0.0000   0.2586
  14.200   1.6174   0.03355   0.02749  -0.0485  0.0341  1.0000  -5.7865   0.0000   0.0000   0.0000   0.2580
  14.300   1.6207   0.03416   0.02813  -0.0481  0.0335  1.0000  -5.8376   0.0000   0.0000   0.0000   0.2575
  14.400   1.6232   0.03484   0.02883  -0.0477  0.0328  1.0000  -5.8859   0.0000   0.0000   0.0000   0.2570
  14.500   1.6252   0.03557   0.02957  -0.0472  0.0323  1.0000  -5.9322   0.0000   0.0000   0.0000   0.2565
  14.600   1.6264   0.03638   0.03039  -0.0467  0.0318  1.0000  -5.9747   0.0000   0.0000   0.0000   0.2559
  14.700   1.6289   0.03707   0.03111  -0.0463  0.0313  1.0000  -6.0230   0.0000   0.0000   0.0000   0.2554
  14.800   1.6316   0.03776   0.03182  -0.0460  0.0308  1.0000  -6.0718   0.0000   0.0000   0.0000   0.2550
  14.900   1.6337   0.03851   0.03260  -0.0456  0.0304  1.0000  -6.1185   0.0000   0.0000   0.0000   0.2545
  15.000   1.6354   0.03931   0.03342  -0.0452  0.0300  1.0000  -6.1636   0.0000   0.0000   0.0000   0.2540
  15.100   1.6366   0.04016   0.03429  -0.0448  0.0296  1.0000  -6.2065   0.0000   0.0000   0.0000   0.2535
  15.200   1.6370   0.04110   0.03524  -0.0445  0.0292  1.0000  -6.2460   0.0000   0.0000   0.0000   0.2531
  15.300   1.6385   0.04195   0.03612  -0.0441  0.0289  1.0000  -6.2997   0.0000   0.0000   0.0000   0.2526
  15.400   1.6409   0.04272   0.03692  -0.0439  0.0285  1.0000  -6.3661   0.0000   0.0000   0.0000   0.2522
  15.500   1.6429   0.04355   0.03778  -0.0436  0.0281  1.0000  -6.4305   0.0000   0.0000   0.0000   0.2518
  15.600   1.6445   0.04443   0.03868  -0.0433  0.0278  1.0000  -6.4926   0.0000   0.0000   0.0000   0.2514
  15.700   1.6456   0.04536   0.03963  -0.0431  0.0274  1.0000  -6.5523   0.0000   0.0000   0.0000   0.2510
  15.800   1.6462   0.04635   0.04065  -0.0428  0.0272  1.0000  -6.6092   0.0000   0.0000   0.0000   0.2506
  15.900   1.6463   0.04741   0.04173  -0.0426  0.0269  1.0000  -6.6631   0.0000   0.0000   0.0000   0.2502
  16.000   1.6455   0.04858   0.04292  -0.0424  0.0266  1.0000  -6.7114   0.0000   0.0000   0.0000   0.2499
  16.100   1.6464   0.04957   0.04395  -0.0422  0.0264  1.0000  -6.7701   0.0000   0.0000   0.0000   0.2495
  16.200   1.6476   0.05055   0.04496  -0.0421  0.0261  1.0000  -6.8308   0.0000   0.0000   0.0000   0.2492
  16.300   1.6486   0.05156   0.04601  -0.0419  0.0259  1.0000  -6.8899   0.0000   0.0000   0.0000   0.2488
  16.400   1.6491   0.05262   0.04710  -0.0418  0.0256  1.0000  -6.9470   0.0000   0.0000   0.0000   0.2485
  16.500   1.6495   0.05371   0.04822  -0.0417  0.0254  1.0000  -7.0032   0.0000   0.0000   0.0000   0.2482
  16.600   1.6495   0.05487   0.04940  -0.0416  0.0252  1.0000  -7.0565   0.0000   0.0000   0.0000   0.2479
  16.700   1.6490   0.05608   0.05064  -0.0415  0.0250  1.0000  -7.1075   0.0000   0.0000   0.0000   0.2476
  16.800   1.6482   0.05736   0.05194  -0.0415  0.0248  1.0000  -7.1560   0.0000   0.0000   0.0000   0.2474
  16.900   1.6466   0.05873   0.05335  -0.0415  0.0246  1.0000  -7.1998   0.0000   0.0000   0.0000   0.2472
  17.000   1.6442   0.06022   0.05486  -0.0415  0.0244  1.0000  -7.2381   0.0000   0.0000   0.0000   0.2470
  17.100   1.6417   0.06172   0.05640  -0.0415  0.0243  1.0000  -7.2755   0.0000   0.0000   0.0000   0.2468
  17.200   1.6421   0.06289   0.05761  -0.0415  0.0241  1.0000  -7.3316   0.0000   0.0000   0.0000   0.2465
  17.300   1.6421   0.06412   0.05888  -0.0416  0.0239  1.0000  -7.3849   0.0000   0.0000   0.0000   0.2463
  17.400   1.6416   0.06542   0.06021  -0.0417  0.0237  1.0000  -7.4353   0.0000   0.0000   0.0000   0.2461
  17.500   1.6409   0.06676   0.06159  -0.0418  0.0235  1.0000  -7.4842   0.0000   0.0000   0.0000   0.2460
  17.600   1.6398   0.06814   0.06300  -0.0419  0.0233  1.0000  -7.5311   0.0000   0.0000   0.0000   0.2458
  17.700   1.6385   0.06957   0.06447  -0.0420  0.0231  1.0000  -7.5759   0.0000   0.0000   0.0000   0.2457
  17.800   1.6370   0.07103   0.06596  -0.0422  0.0230  1.0000  -7.6195   0.0000   0.0000   0.0000   0.2455
  17.900   1.6349   0.07257   0.06754  -0.0424  0.0228  1.0000  -7.6594   0.0000   0.0000   0.0000   0.2454
  18.000   1.6325   0.07418   0.06918  -0.0426  0.0227  1.0000  -7.6965   0.0000   0.0000   0.0000   0.2454
  18.100   1.6296   0.07586   0.07089  -0.0429  0.0225  1.0000  -7.7307   0.0000   0.0000   0.0000   0.2453
  18.200   1.6262   0.07763   0.07269  -0.0432  0.0224  1.0000  -7.7601   0.0000   0.0000   0.0000   0.2453
  18.300   1.6221   0.07950   0.07459  -0.0435  0.0223  1.0000  -7.7848   0.0000   0.0000   0.0000   0.2453
  18.400   1.6174   0.08146   0.07659  -0.0439  0.0222  1.0000  -7.8050   0.0000   0.0000   0.0000   0.2454
  18.500   1.6123   0.08351   0.07867  -0.0443  0.0221  1.0000  -7.8214   0.0000   0.0000   0.0000   0.2455
  18.600   1.6105   0.08510   0.08031  -0.0447  0.0220  1.0000  -7.8610   0.0000   0.0000   0.0000   0.2455
  18.700   1.6085   0.08673   0.08198  -0.0450  0.0219  1.0000  -7.8985   0.0000   0.0000   0.0000   0.2455
  18.800   1.6059   0.08844   0.08373  -0.0454  0.0218  1.0000  -7.9325   0.0000   0.0000   0.0000   0.2455
  18.900   1.6031   0.09019   0.08553  -0.0459  0.0217  1.0000  -7.9638   0.0000   0.0000   0.0000   0.2456
  19.000   1.6001   0.09198   0.08736  -0.0463  0.0216  1.0000  -7.9941   0.0000   0.0000   0.0000   0.2457
  19.100   1.5968   0.09383   0.08925  -0.0468  0.0215  1.0000  -8.0212   0.0000   0.0000   0.0000   0.2458
  19.200   1.5934   0.09569   0.09115  -0.0473  0.0214  1.0000  -8.0478   0.0000   0.0000   0.0000   0.2459
  19.300   1.5900   0.09757   0.09307  -0.0479  0.0213  1.0000  -8.0737   0.0000   0.0000   0.0000   0.2461
  19.400   1.5864   0.09950   0.09504  -0.0485  0.0212  1.0000  -8.0972   0.0000   0.0000   0.0000   0.2462
  19.500   1.5828   0.10142   0.09700  -0.0491  0.0211  1.0000  -8.1209   0.0000   0.0000   0.0000   0.2464
  19.600   1.5791   0.10338   0.09899  -0.0497  0.0210  1.0000  -8.1430   0.0000   0.0000   0.0000   0.2466
  19.700   1.5752   0.10535   0.10100  -0.0504  0.0209  1.0000  -8.1635   0.0000   0.0000   0.0000   0.2469
  19.800   1.5716   0.10731   0.10300  -0.0511  0.0208  1.0000  -8.1849   0.0000   0.0000   0.0000   0.2471
  19.900   1.5677   0.10933   0.10505  -0.0518  0.0208  1.0000  -8.2038   0.0000   0.0000   0.0000   0.2474
  20.000   1.5639   0.11134   0.10710  -0.0526  0.0207  1.0000  -8.2228   0.0000   0.0000   0.0000   0.2477


