xflr5 v6.57

 Calculated polar for: QX0123

 1 1 Reynolds number fixed          Mach number fixed         

 xtrf =   1.000 (top)        1.000 (bottom)
 Mach =   0.000     Re =     0.120 e 6     Ncrit =   9.000

  alpha     CL        CD       CDp       Cm    Top Xtr Bot Xtr   Cpmin    Chinge    XCp    
 ------- -------- --------- --------- -------- ------- ------- -------- --------- ---------
  -9.400  -0.3351   0.10948   0.10532  -0.0343  1.0000  0.1070  -1.5401   0.0000   0.0000   0.0000   0.1348
  -9.300  -0.3373   0.10896   0.10482  -0.0332  1.0000  0.1078  -1.5319   0.0000   0.0000   0.0000   0.1389
  -9.200  -0.3407   0.10841   0.10428  -0.0323  1.0000  0.1086  -1.5305   0.0000   0.0000   0.0000   0.1429
  -9.100  -0.3453   0.10779   0.10369  -0.0315  1.0000  0.1096  -1.5360   0.0000   0.0000   0.0000   0.1468
  -9.000  -0.3516   0.10711   0.10304  -0.0308  1.0000  0.1106  -1.5504   0.0000   0.0000   0.0000   0.1506
  -8.900  -0.3613   0.10635   0.10231  -0.0305  1.0000  0.1117  -1.5824   0.0000   0.0000   0.0000   0.1542
  -8.800  -0.3770   0.10549   0.10149  -0.0307  1.0000  0.1126  -1.6439   0.0000   0.0000   0.0000   0.1578
  -8.700  -0.4023   0.10035   0.09622  -0.0327  1.0000  0.1125  -1.7616   0.0000   0.0000   0.0000   0.1573
  -8.600  -0.4200   0.09973   0.09566  -0.0324  1.0000  0.1128  -1.8244   0.0000   0.0000   0.0000   0.1619
  -8.500  -0.4388   0.09877   0.09475  -0.0331  0.9995  0.1131  -1.9001   0.0000   0.0000   0.0000   0.1642
  -7.400  -0.4528   0.05649   0.05172  -0.0733  0.9674  0.0812  -2.7155   0.0000   0.0000   0.0000   0.0778
  -7.300  -0.4397   0.05608   0.05134  -0.0740  0.9661  0.0821  -2.6356   0.0000   0.0000   0.0000   0.0714
  -7.200  -0.4191   0.05877   0.05419  -0.0734  0.9654  0.0908  -2.4341   0.0000   0.0000   0.0000   0.0646
  -7.100  -0.4117   0.05932   0.05476  -0.0733  0.9627  0.0985  -2.3489   0.0000   0.0000   0.0000   0.0620
  -7.000  -0.4029   0.05874   0.05418  -0.0735  0.9605  0.0998  -2.2949   0.0000   0.0000   0.0000   0.0575
  -6.900  -0.3954   0.05777   0.05314  -0.0751  0.9583  0.1068  -2.2641   0.0000   0.0000   0.0000   0.0500
  -6.800  -0.3842   0.05651   0.05184  -0.0764  0.9569  0.1080  -2.2364   0.0000   0.0000   0.0000   0.0408
  -6.600  -0.3729   0.05496   0.05022  -0.0772  0.9513  0.1160  -2.1833   0.0000   0.0000   0.0000   0.0328
  -6.500  -0.3639   0.05419   0.04939  -0.0785  0.9492  0.1233  -2.1463   0.0000   0.0000   0.0000   0.0241
  -6.300  -0.3775   0.03484   0.02765  -0.0827  0.9428  0.0779  -2.8419   0.0000   0.0000   0.0000   0.0194
  -6.200  -0.3661   0.03365   0.02622  -0.0832  0.9409  0.0782  -2.8266   0.0000   0.0000   0.0000   0.0110
  -6.100  -0.3528   0.03248   0.02479  -0.0840  0.9394  0.0787  -2.8070   0.0000   0.0000   0.0000  -0.0001
  -6.000  -0.3380   0.03139   0.02338  -0.0849  0.9381  0.0795  -2.7855   0.0000   0.0000   0.0000  -0.0137
  -5.900  -0.3221   0.03040   0.02219  -0.0860  0.9371  0.0805  -2.7489   0.0000   0.0000   0.0000  -0.0300
  -5.800  -0.3180   0.03003   0.02184  -0.0850  0.9336  0.0813  -2.7152   0.0000   0.0000   0.0000  -0.0301
  -5.700  -0.3060   0.02960   0.02143  -0.0854  0.9316  0.0825  -2.6619   0.0000   0.0000   0.0000  -0.0420
  -5.600  -0.2919   0.02910   0.02086  -0.0861  0.9300  0.0841  -2.6103   0.0000   0.0000   0.0000  -0.0583
  -5.500  -0.2763   0.02848   0.02009  -0.0870  0.9287  0.0861  -2.5649   0.0000   0.0000   0.0000  -0.0786
  -5.400  -0.2595   0.02782   0.01914  -0.0880  0.9276  0.0885  -2.5254   0.0000   0.0000   0.0000  -0.1037
  -5.300  -0.2515   0.02746   0.01886  -0.0877  0.9249  0.0899  -2.4786   0.0000   0.0000   0.0000  -0.1133
  -5.200  -0.2419   0.02719   0.01860  -0.0875  0.9223  0.0918  -2.4301   0.0000   0.0000   0.0000  -0.1269
  -5.100  -0.2281   0.02680   0.01814  -0.0881  0.9205  0.0944  -2.3792   0.0000   0.0000   0.0000  -0.1517
  -5.000  -0.2124   0.02631   0.01751  -0.0889  0.9191  0.0974  -2.3283   0.0000   0.0000   0.0000  -0.1851
  -4.900  -0.1958   0.02601   0.01729  -0.0901  0.9179  0.1007  -2.2569   0.0000   0.0000   0.0000  -0.2277
  -4.800  -0.1779   0.02569   0.01685  -0.0915  0.9170  0.1056  -2.1922   0.0000   0.0000   0.0000  -0.2828
  -4.700  -0.1763   0.02566   0.01689  -0.0899  0.9127  0.1075  -2.1594   0.0000   0.0000   0.0000  -0.2785
  -4.600  -0.1633   0.02548   0.01667  -0.0903  0.9106  0.1119  -2.1191   0.0000   0.0000   0.0000  -0.3225
  -4.500  -0.1477   0.02519   0.01641  -0.0913  0.9090  0.1161  -2.0714   0.0000   0.0000   0.0000  -0.3887
  -4.400  -0.1302   0.02489   0.01600  -0.0924  0.9078  0.1213  -2.0290   0.0000   0.0000   0.0000  -0.4827
  -4.300  -0.1124   0.02452   0.01573  -0.0937  0.9068  0.1259  -1.9757   0.0000   0.0000   0.0000  -0.6093
  -4.200  -0.1085   0.02450   0.01561  -0.0924  0.9028  0.1298  -1.9552   0.0000   0.0000   0.0000  -0.6280
  -4.100  -0.0968   0.02428   0.01550  -0.0927  0.9004  0.1347  -1.9105   0.0000   0.0000   0.0000  -0.7364
  -4.000  -0.0818   0.02401   0.01526  -0.0935  0.8987  0.1411  -1.8644   0.0000   0.0000   0.0000  -0.9260
  -3.900  -0.0658   0.02372   0.01498  -0.0943  0.8973  0.1482  -1.8178   0.0000   0.0000   0.0000  -1.2231
  -3.800  -0.0493   0.02342   0.01470  -0.0953  0.8962  0.1558  -1.7702   0.0000   0.0000   0.0000  -1.7344
  -3.700  -0.0450   0.02339   0.01471  -0.0942  0.8922  0.1604  -1.7433   0.0000   0.0000   0.0000  -1.9002
  -3.600  -0.0340   0.02321   0.01458  -0.0942  0.8897  0.1675  -1.7043   0.0000   0.0000   0.0000  -2.5902
  -3.500  -0.0199   0.02299   0.01440  -0.0947  0.8879  0.1766  -1.6588   0.0000   0.0000   0.0000  -4.6354
  -3.400  -0.0044   0.02278   0.01420  -0.0955  0.8864  0.1882  -1.6102   0.0000   0.0000   0.0000  -22.0717
  -3.300   0.0114   0.02253   0.01405  -0.0963  0.8852  0.2000  -1.5585   0.0000   0.0000   0.0000   8.9109
  -3.200   0.0143   0.02257   0.01413  -0.0951  0.8806  0.2074  -1.5334   0.0000   0.0000   0.0000   7.0438
  -3.100   0.0262   0.02242   0.01403  -0.0952  0.8781  0.2200  -1.4904   0.0000   0.0000   0.0000   3.9584
  -3.000   0.0403   0.02221   0.01390  -0.0958  0.8764  0.2341  -1.4426   0.0000   0.0000   0.0000   2.6743
  -2.900   0.0553   0.02198   0.01376  -0.0964  0.8750  0.2511  -1.3931   0.0000   0.0000   0.0000   2.0279
  -2.800   0.0647   0.02188   0.01374  -0.0962  0.8722  0.2665  -1.3547   0.0000   0.0000   0.0000   1.7646
  -2.700   0.0718   0.02183   0.01378  -0.0956  0.8684  0.2821  -1.3211   0.0000   0.0000   0.0000   1.6074
  -2.600   0.0843   0.02164   0.01370  -0.0959  0.8663  0.3047  -1.2764   0.0000   0.0000   0.0000   1.4078
  -2.500   0.0981   0.02139   0.01360  -0.0963  0.8647  0.3312  -1.2292   0.0000   0.0000   0.0000   1.2482
  -2.400   0.1123   0.02111   0.01348  -0.0967  0.8634  0.3625  -1.1814   0.0000   0.0000   0.0000   1.1252
  -2.300   0.1165   0.02113   0.01363  -0.0957  0.8587  0.3857  -1.1537   0.0000   0.0000   0.0000   1.0847
  -2.200   0.1269   0.02093   0.01361  -0.0956  0.8561  0.4215  -1.1135   0.0000   0.0000   0.0000   1.0146
  -2.100   0.1391   0.02066   0.01357  -0.0956  0.8542  0.4674  -1.0697   0.0000   0.0000   0.0000   0.9474
  -2.000   0.1515   0.02038   0.01354  -0.0955  0.8527  0.5229  -1.0252   0.0000   0.0000   0.0000   0.8893
  -1.900   0.1576   0.02035   0.01370  -0.0945  0.8491  0.5707  -0.9932   0.0000   0.0000   0.0000   0.8577
  -1.800   0.1645   0.02028   0.01384  -0.0935  0.8456  0.6187  -0.9596   0.0000   0.0000   0.0000   0.8256
  -1.700   0.1744   0.02016   0.01388  -0.0927  0.8435  0.6688  -0.9201   0.0000   0.0000   0.0000   0.7881
  -1.600   0.1849   0.02004   0.01388  -0.0919  0.8418  0.7132  -0.8794   0.0000   0.0000   0.0000   0.7526
  -1.500   0.1949   0.01995   0.01388  -0.0909  0.8403  0.7507  -0.8399   0.0000   0.0000   0.0000   0.7215
  -1.400   0.1965   0.02016   0.01416  -0.0892  0.8347  0.7769  -0.8174   0.0000   0.0000   0.0000   0.7083
  -1.300   0.2054   0.02012   0.01417  -0.0880  0.8324  0.8069  -0.7845   0.0000   0.0000   0.0000   0.6826
  -1.200   0.2154   0.02004   0.01412  -0.0870  0.8308  0.8349  -0.7523   0.0000   0.0000   0.0000   0.6575
  -1.100   0.2262   0.01995   0.01405  -0.0860  0.8295  0.8611  -0.7236   0.0000   0.0000   0.0000   0.6335
  -1.000   0.2289   0.02019   0.01431  -0.0845  0.8239  0.8839  -0.7067   0.0000   0.0000   0.0000   0.6219
  -0.900   0.2419   0.02015   0.01427  -0.0842  0.8217  0.9092  -0.6758   0.0000   0.0000   0.0000   0.6003
  -0.800   0.2609   0.02006   0.01415  -0.0850  0.8204  0.9343  -0.6372   0.0000   0.0000   0.0000   0.5776
  -0.700   0.2866   0.01995   0.01399  -0.0872  0.8194  0.9572  -0.6214   0.0000   0.0000   0.0000   0.5556
  -0.600   0.3170   0.01980   0.01378  -0.0904  0.8187  0.9765  -0.6410   0.0000   0.0000   0.0000   0.5361
  -0.500   0.3498   0.01962   0.01353  -0.0942  0.8181  0.9904  -0.6619   0.0000   0.0000   0.0000   0.5198
  -0.400   0.3687   0.01978   0.01365  -0.0964  0.8131  1.0000  -0.6740   0.0000   0.0000   0.0000   0.5115
  -0.300   0.3756   0.01977   0.01359  -0.0957  0.8099  1.0000  -0.6813   0.0000   0.0000   0.0000   0.5047
  -0.200   0.3861   0.01967   0.01344  -0.0954  0.8080  1.0000  -0.6911   0.0000   0.0000   0.0000   0.4969
   0.000   0.3953   0.01990   0.01359  -0.0935  0.7996  1.0000  -0.7025   0.0000   0.0000   0.0000   0.4859
   0.100   0.4065   0.01981   0.01345  -0.0933  0.7974  1.0000  -0.7131   0.0000   0.0000   0.0000   0.4788
   0.200   0.4192   0.01969   0.01327  -0.0933  0.7959  1.0000  -0.7248   0.0000   0.0000   0.0000   0.4716
   0.300   0.4213   0.01998   0.01354  -0.0922  0.7900  1.0000  -0.7286   0.0000   0.0000   0.0000   0.4676
   0.400   0.4320   0.01994   0.01345  -0.0920  0.7873  1.0000  -0.7388   0.0000   0.0000   0.0000   0.4615
   0.500   0.4447   0.01982   0.01329  -0.0919  0.7855  1.0000  -0.7505   0.0000   0.0000   0.0000   0.4552
   0.600   0.4581   0.01968   0.01309  -0.0920  0.7842  1.0000  -0.7628   0.0000   0.0000   0.0000   0.4491
   0.700   0.4609   0.02001   0.01341  -0.0910  0.7776  1.0000  -0.7669   0.0000   0.0000   0.0000   0.4456
   0.800   0.4730   0.01991   0.01328  -0.0909  0.7754  1.0000  -0.7782   0.0000   0.0000   0.0000   0.4402
   0.900   0.4861   0.01977   0.01309  -0.0909  0.7738  1.0000  -0.7906   0.0000   0.0000   0.0000   0.4348
   1.100   0.5030   0.01997   0.01324  -0.0900  0.7657  1.0000  -0.8089   0.0000   0.0000   0.0000   0.4266
   1.200   0.5156   0.01984   0.01308  -0.0900  0.7638  1.0000  -0.8215   0.0000   0.0000   0.0000   0.4219
   1.300   0.5290   0.01968   0.01287  -0.0900  0.7623  1.0000  -0.8348   0.0000   0.0000   0.0000   0.4174
   1.400   0.5346   0.01994   0.01313  -0.0893  0.7565  1.0000  -0.8417   0.0000   0.0000   0.0000   0.4142
   1.500   0.5464   0.01986   0.01302  -0.0892  0.7539  1.0000  -0.8538   0.0000   0.0000   0.0000   0.4102
   1.600   0.5595   0.01968   0.01281  -0.0891  0.7521  1.0000  -0.8683   0.0000   0.0000   0.0000   0.4062
   1.700   0.5729   0.01949   0.01258  -0.0891  0.7506  1.0000  -0.8842   0.0000   0.0000   0.0000   0.4022
   1.800   0.5784   0.01977   0.01286  -0.0884  0.7442  1.0000  -0.8927   0.0000   0.0000   0.0000   0.3995
   1.900   0.5911   0.01960   0.01267  -0.0883  0.7420  1.0000  -0.9080   0.0000   0.0000   0.0000   0.3959
   2.000   0.6044   0.01939   0.01242  -0.0883  0.7403  1.0000  -0.9240   0.0000   0.0000   0.0000   0.3924
   2.100   0.6115   0.01959   0.01262  -0.0877  0.7348  1.0000  -0.9344   0.0000   0.0000   0.0000   0.3897
   2.200   0.6234   0.01947   0.01247  -0.0876  0.7319  1.0000  -0.9496   0.0000   0.0000   0.0000   0.3866
   2.300   0.6365   0.01926   0.01225  -0.0875  0.7300  1.0000  -0.9660   0.0000   0.0000   0.0000   0.3834
   2.400   0.6460   0.01930   0.01228  -0.0871  0.7258  1.0000  -0.9790   0.0000   0.0000   0.0000   0.3808
   2.500   0.6564   0.01927   0.01224  -0.0868  0.7218  1.0000  -0.9934   0.0000   0.0000   0.0000   0.3781
   2.600   0.6693   0.01907   0.01201  -0.0867  0.7196  1.0000  -1.0104   0.0000   0.0000   0.0000   0.3752
   2.700   0.6830   0.01882   0.01172  -0.0867  0.7179  1.0000  -1.0282   0.0000   0.0000   0.0000   0.3724
   2.800   0.6899   0.01903   0.01195  -0.0861  0.7116  1.0000  -1.0393   0.0000   0.0000   0.0000   0.3703
   2.900   0.7025   0.01884   0.01173  -0.0860  0.7090  1.0000  -1.0562   0.0000   0.0000   0.0000   0.3677
   3.000   0.7161   0.01860   0.01146  -0.0859  0.7072  1.0000  -1.0743   0.0000   0.0000   0.0000   0.3652
   3.100   0.7234   0.01879   0.01167  -0.0854  0.7011  1.0000  -1.0869   0.0000   0.0000   0.0000   0.3632
   3.200   0.7359   0.01863   0.01148  -0.0853  0.6984  1.0000  -1.1049   0.0000   0.0000   0.0000   0.3609
   3.300   0.7494   0.01840   0.01122  -0.0853  0.6964  1.0000  -1.1241   0.0000   0.0000   0.0000   0.3587
   3.400   0.7571   0.01858   0.01142  -0.0848  0.6904  1.0000  -1.1371   0.0000   0.0000   0.0000   0.3568
   3.500   0.7696   0.01842   0.01124  -0.0847  0.6875  1.0000  -1.1558   0.0000   0.0000   0.0000   0.3547
   3.600   0.7832   0.01819   0.01100  -0.0847  0.6854  1.0000  -1.1774   0.0000   0.0000   0.0000   0.3526
   3.700   0.7909   0.01835   0.01119  -0.0842  0.6791  1.0000  -1.1923   0.0000   0.0000   0.0000   0.3509
   3.800   0.8037   0.01817   0.01098  -0.0841  0.6762  1.0000  -1.2131   0.0000   0.0000   0.0000   0.3489
   3.900   0.8141   0.01815   0.01096  -0.0838  0.6717  1.0000  -1.2313   0.0000   0.0000   0.0000   0.3471
   4.000   0.8249   0.01811   0.01090  -0.0836  0.6672  1.0000  -1.2500   0.0000   0.0000   0.0000   0.3454
   4.100   0.8382   0.01789   0.01065  -0.0835  0.6643  1.0000  -1.2717   0.0000   0.0000   0.0000   0.3436
   4.200   0.8469   0.01798   0.01075  -0.0831  0.6582  1.0000  -1.2887   0.0000   0.0000   0.0000   0.3419
   4.300   0.8594   0.01782   0.01055  -0.0830  0.6545  1.0000  -1.3120   0.0000   0.0000   0.0000   0.3403
   4.400   0.8694   0.01782   0.01056  -0.0826  0.6492  1.0000  -1.3324   0.0000   0.0000   0.0000   0.3387
   4.500   0.8809   0.01772   0.01044  -0.0824  0.6445  1.0000  -1.3554   0.0000   0.0000   0.0000   0.3371
   4.600   0.8920   0.01766   0.01036  -0.0822  0.6398  1.0000  -1.3780   0.0000   0.0000   0.0000   0.3355
   4.700   0.9025   0.01763   0.01033  -0.0819  0.6343  1.0000  -1.3998   0.0000   0.0000   0.0000   0.3340
   4.800   0.9144   0.01754   0.01020  -0.0818  0.6299  1.0000  -1.4236   0.0000   0.0000   0.0000   0.3326
   4.900   0.9241   0.01757   0.01024  -0.0814  0.6239  1.0000  -1.4468   0.0000   0.0000   0.0000   0.3311
   5.000   0.9364   0.01747   0.01009  -0.0813  0.6197  1.0000  -1.4737   0.0000   0.0000   0.0000   0.3297
   5.100   0.9456   0.01754   0.01019  -0.0810  0.6133  1.0000  -1.4964   0.0000   0.0000   0.0000   0.3284
   5.200   0.9574   0.01748   0.01008  -0.0808  0.6087  1.0000  -1.5229   0.0000   0.0000   0.0000   0.3271
   5.300   0.9670   0.01754   0.01015  -0.0805  0.6023  1.0000  -1.5463   0.0000   0.0000   0.0000   0.3258
   5.400   0.9782   0.01751   0.01016  -0.0803  0.5971  1.0000  -1.5722   0.0000   0.0000   0.0000   0.3245
   5.500   0.9882   0.01755   0.01020  -0.0800  0.5908  1.0000  -1.5979   0.0000   0.0000   0.0000   0.3232
   5.600   0.9987   0.01758   0.01021  -0.0797  0.5849  1.0000  -1.6246   0.0000   0.0000   0.0000   0.3220
   5.700   1.0094   0.01759   0.01019  -0.0795  0.5790  1.0000  -1.6518   0.0000   0.0000   0.0000   0.3208
   5.800   1.0190   0.01766   0.01027  -0.0792  0.5723  1.0000  -1.6775   0.0000   0.0000   0.0000   0.3196
   5.900   1.0305   0.01765   0.01019  -0.0790  0.5667  1.0000  -1.7068   0.0000   0.0000   0.0000   0.3184
   6.000   1.0393   0.01775   0.01032  -0.0786  0.5594  1.0000  -1.7336   0.0000   0.0000   0.0000   0.3173
   6.100   1.0498   0.01780   0.01033  -0.0783  0.5530  1.0000  -1.7658   0.0000   0.0000   0.0000   0.3161
   6.200   1.0599   0.01785   0.01036  -0.0780  0.5462  1.0000  -1.7976   0.0000   0.0000   0.0000   0.3150
   6.300   1.0690   0.01796   0.01046  -0.0776  0.5388  1.0000  -1.8279   0.0000   0.0000   0.0000   0.3139
   6.400   1.0795   0.01801   0.01047  -0.0774  0.5322  1.0000  -1.8607   0.0000   0.0000   0.0000   0.3128
   6.500   1.0888   0.01811   0.01055  -0.0770  0.5247  1.0000  -1.8917   0.0000   0.0000   0.0000   0.3117
   6.600   1.0978   0.01823   0.01067  -0.0766  0.5171  1.0000  -1.9242   0.0000   0.0000   0.0000   0.3106
   6.700   1.1078   0.01832   0.01071  -0.0763  0.5101  1.0000  -1.9588   0.0000   0.0000   0.0000   0.3096
   6.800   1.1170   0.01843   0.01081  -0.0759  0.5025  1.0000  -1.9974   0.0000   0.0000   0.0000   0.3086
   6.900   1.1256   0.01858   0.01095  -0.0755  0.4945  1.0000  -2.0367   0.0000   0.0000   0.0000   0.3075
   7.000   1.1349   0.01871   0.01105  -0.0751  0.4871  1.0000  -2.0779   0.0000   0.0000   0.0000   0.3065
   7.100   1.1444   0.01883   0.01112  -0.0748  0.4797  1.0000  -2.1200   0.0000   0.0000   0.0000   0.3055
   7.200   1.1525   0.01900   0.01130  -0.0743  0.4714  1.0000  -2.1589   0.0000   0.0000   0.0000   0.3045
   7.300   1.1610   0.01916   0.01144  -0.0738  0.4635  1.0000  -2.1992   0.0000   0.0000   0.0000   0.3035
   7.400   1.1701   0.01931   0.01161  -0.0734  0.4561  1.0000  -2.2411   0.0000   0.0000   0.0000   0.3025
   7.500   1.1783   0.01949   0.01177  -0.0730  0.4479  1.0000  -2.2810   0.0000   0.0000   0.0000   0.3015
   7.600   1.1861   0.01968   0.01196  -0.0724  0.4396  1.0000  -2.3202   0.0000   0.0000   0.0000   0.3006
   7.700   1.1943   0.01987   0.01212  -0.0720  0.4316  1.0000  -2.3631   0.0000   0.0000   0.0000   0.2996
   7.800   1.2027   0.02006   0.01226  -0.0715  0.4241  1.0000  -2.4087   0.0000   0.0000   0.0000   0.2987
   7.900   1.2102   0.02027   0.01246  -0.0710  0.4157  1.0000  -2.4532   0.0000   0.0000   0.0000   0.2977
   8.000   1.2176   0.02050   0.01268  -0.0704  0.4074  1.0000  -2.4977   0.0000   0.0000   0.0000   0.2967
   8.100   1.2252   0.02072   0.01287  -0.0699  0.3996  1.0000  -2.5431   0.0000   0.0000   0.0000   0.2958
   8.200   1.2331   0.02095   0.01303  -0.0694  0.3920  1.0000  -2.5897   0.0000   0.0000   0.0000   0.2949
   8.300   1.2398   0.02119   0.01328  -0.0687  0.3837  1.0000  -2.6332   0.0000   0.0000   0.0000   0.2939
   8.400   1.2467   0.02145   0.01353  -0.0681  0.3756  1.0000  -2.6771   0.0000   0.0000   0.0000   0.2930
   8.500   1.2537   0.02171   0.01375  -0.0675  0.3679  1.0000  -2.7220   0.0000   0.0000   0.0000   0.2920
   8.600   1.2608   0.02197   0.01396  -0.0670  0.3605  1.0000  -2.7675   0.0000   0.0000   0.0000   0.2911
   8.700   1.2669   0.02225   0.01425  -0.0663  0.3524  1.0000  -2.8097   0.0000   0.0000   0.0000   0.2902
   8.800   1.2733   0.02254   0.01451  -0.0656  0.3448  1.0000  -2.8533   0.0000   0.0000   0.0000   0.2893
   8.900   1.2800   0.02283   0.01474  -0.0650  0.3378  1.0000  -2.8983   0.0000   0.0000   0.0000   0.2884
   9.000   1.2858   0.02313   0.01504  -0.0643  0.3301  1.0000  -2.9405   0.0000   0.0000   0.0000   0.2874
   9.100   1.2915   0.02344   0.01535  -0.0636  0.3227  1.0000  -2.9826   0.0000   0.0000   0.0000   0.2865
   9.200   1.2976   0.02376   0.01561  -0.0629  0.3159  1.0000  -3.0264   0.0000   0.0000   0.0000   0.2856
   9.300   1.3030   0.02409   0.01592  -0.0622  0.3087  1.0000  -3.0681   0.0000   0.0000   0.0000   0.2847
   9.400   1.3080   0.02442   0.01626  -0.0614  0.3016  1.0000  -3.1088   0.0000   0.0000   0.0000   0.2837
   9.500   1.3135   0.02477   0.01660  -0.0607  0.2951  1.0000  -3.1515   0.0000   0.0000   0.0000   0.2828
   9.600   1.3182   0.02511   0.01695  -0.0598  0.2882  1.0000  -3.1914   0.0000   0.0000   0.0000   0.2819
   9.700   1.3227   0.02547   0.01730  -0.0590  0.2816  1.0000  -3.2311   0.0000   0.0000   0.0000   0.2809
   9.800   1.3277   0.02583   0.01758  -0.0582  0.2758  1.0000  -3.2733   0.0000   0.0000   0.0000   0.2800
   9.900   1.3305   0.02619   0.01798  -0.0571  0.2692  1.0000  -3.3079   0.0000   0.0000   0.0000   0.2790
  10.000   1.3346   0.02658   0.01833  -0.0563  0.2634  1.0000  -3.3472   0.0000   0.0000   0.0000   0.2780
  10.100   1.3382   0.02697   0.01871  -0.0554  0.2574  1.0000  -3.3847   0.0000   0.0000   0.0000   0.2771
  10.200   1.3418   0.02739   0.01912  -0.0545  0.2515  1.0000  -3.4221   0.0000   0.0000   0.0000   0.2762
  10.300   1.3458   0.02781   0.01949  -0.0537  0.2460  1.0000  -3.4613   0.0000   0.0000   0.0000   0.2753
  10.400   1.3488   0.02825   0.01996  -0.0528  0.2401  1.0000  -3.4967   0.0000   0.0000   0.0000   0.2743
  10.500   1.3533   0.02869   0.02032  -0.0520  0.2351  1.0000  -3.5377   0.0000   0.0000   0.0000   0.2735
  10.600   1.3557   0.02916   0.02085  -0.0511  0.2293  1.0000  -3.5710   0.0000   0.0000   0.0000   0.2726
  10.700   1.3600   0.02962   0.02122  -0.0504  0.2245  1.0000  -3.6117   0.0000   0.0000   0.0000   0.2718
  10.800   1.3622   0.03012   0.02178  -0.0495  0.2189  1.0000  -3.6443   0.0000   0.0000   0.0000   0.2709
  10.900   1.3664   0.03060   0.02219  -0.0488  0.2142  1.0000  -3.6844   0.0000   0.0000   0.0000   0.2701
  11.000   1.3684   0.03112   0.02277  -0.0480  0.2089  1.0000  -3.7165   0.0000   0.0000   0.0000   0.2693
  11.100   1.3724   0.03162   0.02320  -0.0473  0.2044  1.0000  -3.7560   0.0000   0.0000   0.0000   0.2685
  11.200   1.3742   0.03217   0.02382  -0.0465  0.1993  1.0000  -3.7873   0.0000   0.0000   0.0000   0.2677
  11.300   1.3781   0.03268   0.02424  -0.0458  0.1950  1.0000  -3.8270   0.0000   0.0000   0.0000   0.2669
  11.400   1.3796   0.03327   0.02491  -0.0450  0.1901  1.0000  -3.8570   0.0000   0.0000   0.0000   0.2661
  11.500   1.3834   0.03379   0.02535  -0.0444  0.1860  1.0000  -3.8965   0.0000   0.0000   0.0000   0.2654
  11.600   1.3848   0.03442   0.02605  -0.0436  0.1814  1.0000  -3.9259   0.0000   0.0000   0.0000   0.2646
  11.700   1.3880   0.03498   0.02655  -0.0429  0.1773  1.0000  -3.9630   0.0000   0.0000   0.0000   0.2639
  11.800   1.3899   0.03562   0.02723  -0.0422  0.1730  1.0000  -3.9940   0.0000   0.0000   0.0000   0.2632
  11.900   1.3924   0.03622   0.02781  -0.0416  0.1690  1.0000  -4.0285   0.0000   0.0000   0.0000   0.2625
  12.000   1.3950   0.03685   0.02848  -0.0409  0.1651  1.0000  -4.0623   0.0000   0.0000   0.0000   0.2618
  12.100   1.3968   0.03751   0.02916  -0.0402  0.1611  1.0000  -4.0933   0.0000   0.0000   0.0000   0.2611
  12.200   1.4006   0.03809   0.02966  -0.0397  0.1576  1.0000  -4.1325   0.0000   0.0000   0.0000   0.2604
  12.300   1.4013   0.03884   0.03050  -0.0390  0.1537  1.0000  -4.1580   0.0000   0.0000   0.0000   0.2597
  12.400   1.4044   0.03945   0.03106  -0.0384  0.1502  1.0000  -4.1946   0.0000   0.0000   0.0000   0.2591
  12.500   1.4061   0.04019   0.03183  -0.0378  0.1467  1.0000  -4.2262   0.0000   0.0000   0.0000   0.2584
  12.600   1.4078   0.04090   0.03256  -0.0372  0.1432  1.0000  -4.2593   0.0000   0.0000   0.0000   0.2578
  12.700   1.4120   0.04150   0.03306  -0.0367  0.1401  1.0000  -4.3031   0.0000   0.0000   0.0000   0.2572
  12.800   1.4119   0.04235   0.03403  -0.0360  0.1367  1.0000  -4.3271   0.0000   0.0000   0.0000   0.2565
  12.900   1.4144   0.04302   0.03468  -0.0355  0.1337  1.0000  -4.3641   0.0000   0.0000   0.0000   0.2559
  13.000   1.4172   0.04374   0.03538  -0.0350  0.1307  1.0000  -4.4004   0.0000   0.0000   0.0000   0.2553
  13.100   1.4176   0.04458   0.03630  -0.0344  0.1277  1.0000  -4.4271   0.0000   0.0000   0.0000   0.2547
  13.200   1.4210   0.04522   0.03688  -0.0339  0.1250  1.0000  -4.4675   0.0000   0.0000   0.0000   0.2541
  13.300   1.4228   0.04603   0.03771  -0.0334  0.1222  1.0000  -4.4987   0.0000   0.0000   0.0000   0.2535
  13.400   1.4234   0.04688   0.03864  -0.0329  0.1195  1.0000  -4.5257   0.0000   0.0000   0.0000   0.2529
  13.500   1.4273   0.04751   0.03920  -0.0324  0.1170  1.0000  -4.5677   0.0000   0.0000   0.0000   0.2524
  13.600   1.4291   0.04835   0.04006  -0.0319  0.1145  1.0000  -4.5981   0.0000   0.0000   0.0000   0.2518
  13.700   1.4295   0.04926   0.04105  -0.0314  0.1121  1.0000  -4.6232   0.0000   0.0000   0.0000   0.2513
  13.800   1.4331   0.04992   0.04166  -0.0310  0.1098  1.0000  -4.6637   0.0000   0.0000   0.0000   0.2507
  13.900   1.4365   0.05067   0.04239  -0.0306  0.1076  1.0000  -4.7005   0.0000   0.0000   0.0000   0.2502
  14.000   1.4359   0.05169   0.04351  -0.0301  0.1054  1.0000  -4.7203   0.0000   0.0000   0.0000   0.2497
  14.100   1.4381   0.05246   0.04429  -0.0297  0.1033  1.0000  -4.7542   0.0000   0.0000   0.0000   0.2492
  14.200   1.4457   0.05291   0.04461  -0.0294  0.1011  1.0000  -4.8096   0.0000   0.0000   0.0000   0.2487
  14.300   1.4433   0.05410   0.04597  -0.0289  0.0994  1.0000  -4.8205   0.0000   0.0000   0.0000   0.2481
  14.400   1.4439   0.05505   0.04698  -0.0285  0.0975  1.0000  -4.8456   0.0000   0.0000   0.0000   0.2477
  14.500   1.4482   0.05569   0.04758  -0.0282  0.0957  1.0000  -4.8884   0.0000   0.0000   0.0000   0.2472
  14.600   1.4534   0.05635   0.04819  -0.0278  0.0938  1.0000  -4.9319   0.0000   0.0000   0.0000   0.2467
  14.700   1.4511   0.05756   0.04954  -0.0274  0.0923  1.0000  -4.9450   0.0000   0.0000   0.0000   0.2462
  14.800   1.4517   0.05854   0.05056  -0.0270  0.0908  1.0000  -4.9737   0.0000   0.0000   0.0000   0.2458
  14.900   1.4564   0.05917   0.05115  -0.0267  0.0891  1.0000  -5.0222   0.0000   0.0000   0.0000   0.2453
  15.000   1.4634   0.05972   0.05164  -0.0264  0.0875  1.0000  -5.0779   0.0000   0.0000   0.0000   0.2448
  15.100   1.4602   0.06106   0.05312  -0.0260  0.0863  1.0000  -5.0869   0.0000   0.0000   0.0000   0.2444
  15.200   1.4598   0.06217   0.05432  -0.0257  0.0850  1.0000  -5.1090   0.0000   0.0000   0.0000   0.2440
  15.300   1.4625   0.06301   0.05518  -0.0254  0.0837  1.0000  -5.1466   0.0000   0.0000   0.0000   0.2435
  15.400   1.4721   0.06330   0.05536  -0.0251  0.0822  1.0000  -5.2164   0.0000   0.0000   0.0000   0.2430
  15.500   1.4736   0.06435   0.05646  -0.0248  0.0812  1.0000  -5.2449   0.0000   0.0000   0.0000   0.2426
  15.600   1.4703   0.06575   0.05800  -0.0245  0.0803  1.0000  -5.2526   0.0000   0.0000   0.0000   0.2422
  15.700   1.4690   0.06700   0.05934  -0.0243  0.0793  1.0000  -5.2694   0.0000   0.0000   0.0000   0.2419
  15.800   1.4703   0.06801   0.06040  -0.0240  0.0783  1.0000  -5.2992   0.0000   0.0000   0.0000   0.2415
  15.900   1.4758   0.06865   0.06102  -0.0238  0.0772  1.0000  -5.3489   0.0000   0.0000   0.0000   0.2411
  16.000   1.4899   0.06872   0.06095  -0.0234  0.0758  1.0000  -5.4357   0.0000   0.0000   0.0000   0.2405
  16.100   1.4837   0.07039   0.06279  -0.0232  0.0753  1.0000  -5.4293   0.0000   0.0000   0.0000   0.2402
  16.200   1.4787   0.07200   0.06454  -0.0231  0.0747  1.0000  -5.4282   0.0000   0.0000   0.0000   0.2400
  16.300   1.4752   0.07352   0.06617  -0.0230  0.0741  1.0000  -5.4335   0.0000   0.0000   0.0000   0.2397
  16.400   1.4734   0.07488   0.06762  -0.0229  0.0734  1.0000  -5.4471   0.0000   0.0000   0.0000   0.2394
  16.500   1.4735   0.07606   0.06886  -0.0228  0.0726  1.0000  -5.4704   0.0000   0.0000   0.0000   0.2391
  16.600   1.4772   0.07689   0.06971  -0.0226  0.0718  1.0000  -5.5114   0.0000   0.0000   0.0000   0.2388
  16.700   1.4975   0.07637   0.06899  -0.0221  0.0705  1.0000  -5.6457   0.0000   0.0000   0.0000   0.2381
  16.800   1.4891   0.07831   0.07109  -0.0221  0.0702  1.0000  -5.6317   0.0000   0.0000   0.0000   0.2379
  16.900   1.4811   0.08029   0.07322  -0.0222  0.0699  1.0000  -5.6191   0.0000   0.0000   0.0000   0.2379
  17.000   1.4735   0.08229   0.07536  -0.0225  0.0695  1.0000  -5.6077   0.0000   0.0000   0.0000   0.2379
  17.100   1.4662   0.08431   0.07751  -0.0227  0.0692  1.0000  -5.5975   0.0000   0.0000   0.0000   0.2379
  17.200   1.4593   0.08634   0.07966  -0.0231  0.0689  1.0000  -5.5888   0.0000   0.0000   0.0000   0.2380
  17.300   1.4529   0.08837   0.08180  -0.0235  0.0685  1.0000  -5.5817   0.0000   0.0000   0.0000   0.2381
  17.400   1.4469   0.09038   0.08392  -0.0240  0.0682  1.0000  -5.5767   0.0000   0.0000   0.0000   0.2383
  17.500   1.4415   0.09235   0.08599  -0.0244  0.0678  1.0000  -5.5744   0.0000   0.0000   0.0000   0.2384
  17.600   1.4369   0.09425   0.08797  -0.0249  0.0675  1.0000  -5.5761   0.0000   0.0000   0.0000   0.2386
  17.700   1.4338   0.09599   0.08977  -0.0254  0.0671  1.0000  -5.5856   0.0000   0.0000   0.0000   0.2387
  17.800   1.4339   0.09731   0.09113  -0.0256  0.0666  1.0000  -5.6137   0.0000   0.0000   0.0000   0.2387
  17.900   1.4433   0.09746   0.09124  -0.0252  0.0659  1.0000  -5.6947   0.0000   0.0000   0.0000   0.2380
  18.000   1.4538   0.09763   0.09134  -0.0246  0.0653  1.0000  -5.7802   0.0000   0.0000   0.0000   0.2373
  18.100   1.4430   0.10032   0.09417  -0.0257  0.0652  1.0000  -5.7447   0.0000   0.0000   0.0000   0.2380
  18.200   1.4320   0.10314   0.09711  -0.0269  0.0651  1.0000  -5.7064   0.0000   0.0000   0.0000   0.2387
  18.300   1.4208   0.10607   0.10017  -0.0283  0.0651  1.0000  -5.6650   0.0000   0.0000   0.0000   0.2396
  18.400   1.4092   0.10913   0.10336  -0.0298  0.0650  1.0000  -5.6200   0.0000   0.0000   0.0000   0.2406
  18.500   1.3974   0.11235   0.10670  -0.0316  0.0650  1.0000  -5.5709   0.0000   0.0000   0.0000   0.2418
  18.600   1.3852   0.11572   0.11019  -0.0335  0.0650  1.0000  -5.5172   0.0000   0.0000   0.0000   0.2431
  18.700   1.3726   0.11928   0.11386  -0.0357  0.0651  1.0000  -5.4585   0.0000   0.0000   0.0000   0.2447
  18.800   1.3595   0.12301   0.11771  -0.0380  0.0651  1.0000  -5.3942   0.0000   0.0000   0.0000   0.2464
  18.900   1.3461   0.12695   0.12176  -0.0406  0.0652  1.0000  -5.3238   0.0000   0.0000   0.0000   0.2484
  19.000   1.3322   0.13111   0.12602  -0.0435  0.0653  1.0000  -5.2466   0.0000   0.0000   0.0000   0.2506


