xflr5 v6.57

 Calculated polar for: QX0123

 1 1 Reynolds number fixed          Mach number fixed         

 xtrf =   1.000 (top)        1.000 (bottom)
 Mach =   0.000     Re =     0.140 e 6     Ncrit =   9.000

  alpha     CL        CD       CDp       Cm    Top Xtr Bot Xtr   Cpmin    Chinge    XCp    
 ------- -------- --------- --------- -------- ------- ------- -------- --------- ---------
  -8.100  -0.4807   0.05022   0.04511  -0.0837  0.9662  0.0636  -3.3227   0.0000   0.0000   0.0000   0.0643
  -8.000  -0.4733   0.04822   0.04301  -0.0849  0.9645  0.0634  -3.3111   0.0000   0.0000   0.0000   0.0590
  -7.900  -0.4707   0.04662   0.04129  -0.0849  0.9614  0.0633  -3.3094   0.0000   0.0000   0.0000   0.0579
  -7.800  -0.4646   0.04461   0.03911  -0.0859  0.9592  0.0632  -3.3084   0.0000   0.0000   0.0000   0.0535
  -7.700  -0.4565   0.04255   0.03684  -0.0871  0.9575  0.0631  -3.3038   0.0000   0.0000   0.0000   0.0474
  -7.600  -0.4467   0.04053   0.03457  -0.0884  0.9562  0.0631  -3.2939   0.0000   0.0000   0.0000   0.0400
  -7.500  -0.4449   0.03935   0.03322  -0.0877  0.9526  0.0632  -3.2884   0.0000   0.0000   0.0000   0.0409
  -7.400  -0.4374   0.03779   0.03136  -0.0882  0.9503  0.0634  -3.2793   0.0000   0.0000   0.0000   0.0362
  -7.300  -0.4266   0.03647   0.02994  -0.0892  0.9489  0.0644  -3.2400   0.0000   0.0000   0.0000   0.0287
  -7.200  -0.4082   0.03714   0.03096  -0.0903  0.9482  0.0661  -3.0953   0.0000   0.0000   0.0000   0.0165
  -7.100  -0.3932   0.03670   0.03050  -0.0916  0.9472  0.0677  -3.0247   0.0000   0.0000   0.0000   0.0047
  -7.000  -0.3891   0.03597   0.02963  -0.0909  0.9439  0.0685  -3.0087   0.0000   0.0000   0.0000   0.0040
  -6.900  -0.3807   0.03484   0.02829  -0.0911  0.9416  0.0693  -2.9956   0.0000   0.0000   0.0000  -0.0019
  -6.800  -0.3696   0.03356   0.02675  -0.0918  0.9399  0.0699  -2.9817   0.0000   0.0000   0.0000  -0.0112
  -6.700  -0.3566   0.03226   0.02520  -0.0927  0.9387  0.0701  -2.9632   0.0000   0.0000   0.0000  -0.0232
  -6.600  -0.3423   0.03102   0.02372  -0.0938  0.9378  0.0704  -2.9399   0.0000   0.0000   0.0000  -0.0374
  -6.500  -0.3351   0.03023   0.02275  -0.0933  0.9351  0.0707  -2.9231   0.0000   0.0000   0.0000  -0.0420
  -6.400  -0.3267   0.02947   0.02178  -0.0930  0.9324  0.0711  -2.9033   0.0000   0.0000   0.0000  -0.0485
  -6.300  -0.3140   0.02866   0.02070  -0.0935  0.9308  0.0718  -2.8769   0.0000   0.0000   0.0000  -0.0619
  -6.200  -0.2997   0.02780   0.01982  -0.0944  0.9296  0.0727  -2.8249   0.0000   0.0000   0.0000  -0.0794
  -6.100  -0.2846   0.02724   0.01928  -0.0953  0.9285  0.0739  -2.7626   0.0000   0.0000   0.0000  -0.0999
  -6.000  -0.2689   0.02675   0.01876  -0.0963  0.9276  0.0753  -2.7017   0.0000   0.0000   0.0000  -0.1235
  -5.900  -0.2624   0.02645   0.01840  -0.0955  0.9244  0.0765  -2.6670   0.0000   0.0000   0.0000  -0.1297
  -5.800  -0.2521   0.02602   0.01785  -0.0954  0.9220  0.0780  -2.6288   0.0000   0.0000   0.0000  -0.1445
  -5.700  -0.2390   0.02554   0.01712  -0.0957  0.9203  0.0799  -2.5916   0.0000   0.0000   0.0000  -0.1671
  -5.600  -0.2249   0.02500   0.01666  -0.0965  0.9190  0.0817  -2.5299   0.0000   0.0000   0.0000  -0.1961
  -5.500  -0.2099   0.02464   0.01632  -0.0972  0.9179  0.0839  -2.4666   0.0000   0.0000   0.0000  -0.2311
  -5.400  -0.1945   0.02425   0.01583  -0.0980  0.9170  0.0866  -2.4104   0.0000   0.0000   0.0000  -0.2729
  -5.300  -0.1907   0.02414   0.01558  -0.0967  0.9129  0.0883  -2.3854   0.0000   0.0000   0.0000  -0.2760
  -5.200  -0.1793   0.02375   0.01530  -0.0969  0.9109  0.0904  -2.3278   0.0000   0.0000   0.0000  -0.3103
  -5.100  -0.1659   0.02347   0.01502  -0.0973  0.9093  0.0931  -2.2691   0.0000   0.0000   0.0000  -0.3574
  -5.000  -0.1515   0.02319   0.01460  -0.0978  0.9080  0.0969  -2.2155   0.0000   0.0000   0.0000  -0.4183
  -4.900  -0.1371   0.02289   0.01443  -0.0986  0.9069  0.1003  -2.1615   0.0000   0.0000   0.0000  -0.4933
  -4.800  -0.1305   0.02285   0.01432  -0.0978  0.9035  0.1037  -2.1323   0.0000   0.0000   0.0000  -0.5241
  -4.700  -0.1208   0.02266   0.01417  -0.0977  0.9009  0.1070  -2.0931   0.0000   0.0000   0.0000  -0.5849
  -4.600  -0.1082   0.02248   0.01399  -0.0979  0.8990  0.1113  -2.0493   0.0000   0.0000   0.0000  -0.6835
  -4.500  -0.0946   0.02221   0.01373  -0.0984  0.8976  0.1154  -2.0049   0.0000   0.0000   0.0000  -0.8218
  -4.400  -0.0802   0.02197   0.01346  -0.0989  0.8964  0.1205  -1.9604   0.0000   0.0000   0.0000  -1.0199
  -4.300  -0.0730   0.02186   0.01340  -0.0983  0.8931  0.1241  -1.9261   0.0000   0.0000   0.0000  -1.1364
  -4.200  -0.0634   0.02177   0.01324  -0.0980  0.8902  0.1297  -1.8908   0.0000   0.0000   0.0000  -1.3408
  -4.100  -0.0515   0.02152   0.01309  -0.0982  0.8882  0.1350  -1.8457   0.0000   0.0000   0.0000  -1.7107
  -4.000  -0.0384   0.02126   0.01287  -0.0985  0.8867  0.1414  -1.8016   0.0000   0.0000   0.0000  -2.3859
  -3.900  -0.0247   0.02099   0.01262  -0.0988  0.8855  0.1484  -1.7573   0.0000   0.0000   0.0000  -3.8477
  -3.800  -0.0179   0.02094   0.01257  -0.0982  0.8820  0.1544  -1.7263   0.0000   0.0000   0.0000  -5.3741
  -3.700  -0.0085   0.02079   0.01249  -0.0979  0.8792  0.1607  -1.6879   0.0000   0.0000   0.0000  -11.5182
  -3.600   0.0033   0.02060   0.01234  -0.0980  0.8772  0.1689  -1.6452   0.0000   0.0000   0.0000  31.0915
  -3.500   0.0161   0.02040   0.01217  -0.0982  0.8757  0.1786  -1.6003   0.0000   0.0000   0.0000   6.5066
  -3.400   0.0292   0.02019   0.01201  -0.0985  0.8744  0.1892  -1.5535   0.0000   0.0000   0.0000   3.6931
  -3.300   0.0355   0.02019   0.01206  -0.0978  0.8705  0.1978  -1.5208   0.0000   0.0000   0.0000   3.0641
  -3.200   0.0454   0.02007   0.01200  -0.0976  0.8678  0.2085  -1.4802   0.0000   0.0000   0.0000   2.4437
  -3.100   0.0573   0.01990   0.01187  -0.0977  0.8658  0.2218  -1.4363   0.0000   0.0000   0.0000   1.9898
  -3.000   0.0698   0.01969   0.01175  -0.0978  0.8643  0.2360  -1.3906   0.0000   0.0000   0.0000   1.6797
  -2.900   0.0825   0.01948   0.01161  -0.0980  0.8631  0.2526  -1.3446   0.0000   0.0000   0.0000   1.4596
  -2.800   0.0880   0.01951   0.01172  -0.0972  0.8586  0.2657  -1.3137   0.0000   0.0000   0.0000   1.3755
  -2.700   0.0983   0.01936   0.01167  -0.0971  0.8561  0.2843  -1.2728   0.0000   0.0000   0.0000   1.2557
  -2.600   0.1098   0.01916   0.01158  -0.0971  0.8542  0.3067  -1.2293   0.0000   0.0000   0.0000   1.1490
  -2.500   0.1219   0.01893   0.01146  -0.0971  0.8528  0.3327  -1.1849   0.0000   0.0000   0.0000   1.0596
  -2.400   0.1313   0.01880   0.01146  -0.0968  0.8501  0.3588  -1.1463   0.0000   0.0000   0.0000   0.9993
  -2.300   0.1388   0.01873   0.01152  -0.0963  0.8463  0.3861  -1.1115   0.0000   0.0000   0.0000   0.9545
  -2.200   0.1492   0.01852   0.01148  -0.0961  0.8441  0.4216  -1.0710   0.0000   0.0000   0.0000   0.9036
  -2.100   0.1601   0.01827   0.01142  -0.0959  0.8424  0.4640  -1.0293   0.0000   0.0000   0.0000   0.8570
  -2.000   0.1711   0.01801   0.01137  -0.0955  0.8410  0.5133  -0.9874   0.0000   0.0000   0.0000   0.8156
  -1.900   0.1771   0.01800   0.01155  -0.0947  0.8368  0.5561  -0.9559   0.0000   0.0000   0.0000   0.7914
  -1.800   0.1853   0.01789   0.01162  -0.0939  0.8339  0.6028  -0.9196   0.0000   0.0000   0.0000   0.7626
  -1.700   0.1947   0.01774   0.01163  -0.0931  0.8319  0.6488  -0.8811   0.0000   0.0000   0.0000   0.7333
  -1.600   0.2046   0.01760   0.01160  -0.0922  0.8304  0.6906  -0.8419   0.0000   0.0000   0.0000   0.7055
  -1.500   0.2129   0.01756   0.01166  -0.0912  0.8280  0.7243  -0.8062   0.0000   0.0000   0.0000   0.6828
  -1.400   0.2186   0.01766   0.01183  -0.0901  0.8237  0.7530  -0.7785   0.0000   0.0000   0.0000   0.6659
  -1.300   0.2272   0.01760   0.01183  -0.0890  0.8214  0.7805  -0.7499   0.0000   0.0000   0.0000   0.6452
  -1.200   0.2365   0.01752   0.01178  -0.0880  0.8197  0.8063  -0.7234   0.0000   0.0000   0.0000   0.6250
  -1.100   0.2462   0.01742   0.01171  -0.0870  0.8184  0.8301  -0.6965   0.0000   0.0000   0.0000   0.6058
  -1.000   0.2512   0.01759   0.01192  -0.0857  0.8136  0.8506  -0.6766   0.0000   0.0000   0.0000   0.5936
  -0.900   0.2597   0.01758   0.01192  -0.0847  0.8110  0.8720  -0.6516   0.0000   0.0000   0.0000   0.5781
  -0.800   0.2705   0.01751   0.01184  -0.0840  0.8092  0.8932  -0.6238   0.0000   0.0000   0.0000   0.5620
  -0.700   0.2839   0.01740   0.01172  -0.0837  0.8079  0.9139  -0.6262   0.0000   0.0000   0.0000   0.5461
  -0.600   0.3009   0.01728   0.01157  -0.0842  0.8068  0.9338  -0.6386   0.0000   0.0000   0.0000   0.5306
  -0.500   0.3169   0.01743   0.01171  -0.0853  0.8022  0.9537  -0.6492   0.0000   0.0000   0.0000   0.5196
  -0.400   0.3405   0.01734   0.01158  -0.0874  0.8002  0.9704  -0.6648   0.0000   0.0000   0.0000   0.5068
  -0.300   0.3668   0.01721   0.01139  -0.0900  0.7987  0.9833  -0.6826   0.0000   0.0000   0.0000   0.4953
  -0.200   0.3945   0.01704   0.01117  -0.0930  0.7976  0.9936  -0.7025   0.0000   0.0000   0.0000   0.4853
  -0.100   0.4175   0.01688   0.01095  -0.0951  0.7963  1.0000  -0.7199   0.0000   0.0000   0.0000   0.4771
   0.000   0.4211   0.01702   0.01107  -0.0941  0.7915  1.0000  -0.7251   0.0000   0.0000   0.0000   0.4727
   0.100   0.4281   0.01702   0.01104  -0.0935  0.7882  1.0000  -0.7328   0.0000   0.0000   0.0000   0.4673
   0.200   0.4375   0.01694   0.01090  -0.0930  0.7861  1.0000  -0.7423   0.0000   0.0000   0.0000   0.4614
   0.300   0.4476   0.01683   0.01074  -0.0926  0.7845  1.0000  -0.7525   0.0000   0.0000   0.0000   0.4555
   0.400   0.4517   0.01704   0.01093  -0.0917  0.7790  1.0000  -0.7579   0.0000   0.0000   0.0000   0.4516
   0.500   0.4612   0.01699   0.01085  -0.0913  0.7763  1.0000  -0.7674   0.0000   0.0000   0.0000   0.4464
   0.600   0.4721   0.01689   0.01070  -0.0910  0.7744  1.0000  -0.7780   0.0000   0.0000   0.0000   0.4410
   0.700   0.4835   0.01677   0.01052  -0.0908  0.7729  1.0000  -0.7891   0.0000   0.0000   0.0000   0.4358
   0.800   0.4890   0.01699   0.01074  -0.0901  0.7672  1.0000  -0.7953   0.0000   0.0000   0.0000   0.4322
   0.900   0.4997   0.01692   0.01064  -0.0899  0.7648  1.0000  -0.8059   0.0000   0.0000   0.0000   0.4276
   1.000   0.5113   0.01681   0.01048  -0.0897  0.7629  1.0000  -0.8179   0.0000   0.0000   0.0000   0.4231
   1.100   0.5210   0.01682   0.01047  -0.0894  0.7599  1.0000  -0.8282   0.0000   0.0000   0.0000   0.4190
   1.200   0.5296   0.01691   0.01053  -0.0890  0.7556  1.0000  -0.8376   0.0000   0.0000   0.0000   0.4154
   1.300   0.5409   0.01682   0.01041  -0.0888  0.7532  1.0000  -0.8493   0.0000   0.0000   0.0000   0.4114
   1.400   0.5530   0.01668   0.01023  -0.0887  0.7515  1.0000  -0.8617   0.0000   0.0000   0.0000   0.4074
   1.500   0.5616   0.01678   0.01032  -0.0883  0.7470  1.0000  -0.8713   0.0000   0.0000   0.0000   0.4041
   1.600   0.5720   0.01675   0.01027  -0.0880  0.7437  1.0000  -0.8840   0.0000   0.0000   0.0000   0.4007
   1.700   0.5839   0.01662   0.01009  -0.0879  0.7415  1.0000  -0.8986   0.0000   0.0000   0.0000   0.3971
   1.800   0.5964   0.01645   0.00989  -0.0877  0.7398  1.0000  -0.9138   0.0000   0.0000   0.0000   0.3937
   1.900   0.6041   0.01661   0.01005  -0.0873  0.7342  1.0000  -0.9245   0.0000   0.0000   0.0000   0.3909
   2.000   0.6156   0.01651   0.00992  -0.0871  0.7315  1.0000  -0.9389   0.0000   0.0000   0.0000   0.3878
   2.100   0.6280   0.01635   0.00972  -0.0870  0.7295  1.0000  -0.9547   0.0000   0.0000   0.0000   0.3847
   2.200   0.6370   0.01643   0.00980  -0.0866  0.7248  1.0000  -0.9671   0.0000   0.0000   0.0000   0.3821
   2.300   0.6480   0.01636   0.00972  -0.0864  0.7214  1.0000  -0.9816   0.0000   0.0000   0.0000   0.3793
   2.400   0.6603   0.01621   0.00953  -0.0863  0.7191  1.0000  -0.9977   0.0000   0.0000   0.0000   0.3765
   2.500   0.6705   0.01621   0.00952  -0.0860  0.7151  1.0000  -1.0120   0.0000   0.0000   0.0000   0.3740
   2.600   0.6808   0.01619   0.00949  -0.0858  0.7110  1.0000  -1.0264   0.0000   0.0000   0.0000   0.3716
   2.700   0.6930   0.01605   0.00931  -0.0856  0.7085  1.0000  -1.0428   0.0000   0.0000   0.0000   0.3691
   2.800   0.7037   0.01602   0.00927  -0.0854  0.7049  1.0000  -1.0577   0.0000   0.0000   0.0000   0.3668
   2.900   0.7138   0.01603   0.00928  -0.0852  0.7004  1.0000  -1.0720   0.0000   0.0000   0.0000   0.3646
   3.000   0.7259   0.01591   0.00913  -0.0851  0.6977  1.0000  -1.0891   0.0000   0.0000   0.0000   0.3623
   3.100   0.7367   0.01589   0.00909  -0.0849  0.6940  1.0000  -1.1053   0.0000   0.0000   0.0000   0.3602
   3.200   0.7468   0.01591   0.00911  -0.0846  0.6895  1.0000  -1.1209   0.0000   0.0000   0.0000   0.3582
   3.300   0.7590   0.01579   0.00896  -0.0845  0.6867  1.0000  -1.1387   0.0000   0.0000   0.0000   0.3562
   3.400   0.7693   0.01580   0.00897  -0.0843  0.6824  1.0000  -1.1546   0.0000   0.0000   0.0000   0.3542
   3.500   0.7800   0.01578   0.00896  -0.0841  0.6781  1.0000  -1.1723   0.0000   0.0000   0.0000   0.3524
   3.600   0.7925   0.01565   0.00879  -0.0840  0.6752  1.0000  -1.1926   0.0000   0.0000   0.0000   0.3505
   3.700   0.8019   0.01571   0.00887  -0.0837  0.6698  1.0000  -1.2095   0.0000   0.0000   0.0000   0.3487
   3.800   0.8134   0.01564   0.00877  -0.0835  0.6660  1.0000  -1.2290   0.0000   0.0000   0.0000   0.3469
   3.900   0.8246   0.01559   0.00870  -0.0834  0.6618  1.0000  -1.2481   0.0000   0.0000   0.0000   0.3452
   4.000   0.8348   0.01560   0.00870  -0.0831  0.6566  1.0000  -1.2662   0.0000   0.0000   0.0000   0.3435
   4.100   0.8472   0.01547   0.00852  -0.0830  0.6532  1.0000  -1.2869   0.0000   0.0000   0.0000   0.3419
   4.200   0.8564   0.01554   0.00862  -0.0826  0.6469  1.0000  -1.3054   0.0000   0.0000   0.0000   0.3403
   4.300   0.8684   0.01545   0.00847  -0.0825  0.6429  1.0000  -1.3280   0.0000   0.0000   0.0000   0.3387
   4.400   0.8779   0.01550   0.00853  -0.0822  0.6368  1.0000  -1.3483   0.0000   0.0000   0.0000   0.3372
   4.500   0.8896   0.01543   0.00843  -0.0821  0.6324  1.0000  -1.3715   0.0000   0.0000   0.0000   0.3357
   4.600   0.8994   0.01548   0.00848  -0.0818  0.6265  1.0000  -1.3924   0.0000   0.0000   0.0000   0.3342
   4.700   0.9108   0.01545   0.00841  -0.0816  0.6219  1.0000  -1.4154   0.0000   0.0000   0.0000   0.3328
   4.800   0.9207   0.01550   0.00847  -0.0814  0.6160  1.0000  -1.4375   0.0000   0.0000   0.0000   0.3314
   4.900   0.9318   0.01548   0.00842  -0.0812  0.6111  1.0000  -1.4627   0.0000   0.0000   0.0000   0.3301
   5.000   0.9418   0.01554   0.00848  -0.0809  0.6051  1.0000  -1.4863   0.0000   0.0000   0.0000   0.3288
   5.100   0.9529   0.01554   0.00844  -0.0808  0.6001  1.0000  -1.5119   0.0000   0.0000   0.0000   0.3275
   5.200   0.9627   0.01561   0.00851  -0.0805  0.5938  1.0000  -1.5355   0.0000   0.0000   0.0000   0.3262
   5.300   0.9740   0.01560   0.00852  -0.0803  0.5887  1.0000  -1.5615   0.0000   0.0000   0.0000   0.3250
   5.400   0.9833   0.01569   0.00863  -0.0800  0.5820  1.0000  -1.5850   0.0000   0.0000   0.0000   0.3237
   5.500   0.9945   0.01571   0.00859  -0.0799  0.5767  1.0000  -1.6129   0.0000   0.0000   0.0000   0.3225
   5.600   1.0039   0.01580   0.00869  -0.0795  0.5697  1.0000  -1.6379   0.0000   0.0000   0.0000   0.3213
   5.700   1.0141   0.01586   0.00873  -0.0793  0.5635  1.0000  -1.6646   0.0000   0.0000   0.0000   0.3202
   5.800   1.0243   0.01592   0.00876  -0.0790  0.5571  1.0000  -1.6913   0.0000   0.0000   0.0000   0.3190
   5.900   1.0339   0.01601   0.00885  -0.0787  0.5502  1.0000  -1.7177   0.0000   0.0000   0.0000   0.3179
   6.000   1.0445   0.01607   0.00885  -0.0785  0.5442  1.0000  -1.7489   0.0000   0.0000   0.0000   0.3168
   6.100   1.0536   0.01617   0.00896  -0.0781  0.5365  1.0000  -1.7789   0.0000   0.0000   0.0000   0.3156
   6.200   1.0632   0.01627   0.00904  -0.0778  0.5294  1.0000  -1.8097   0.0000   0.0000   0.0000   0.3145
   6.300   1.0735   0.01635   0.00906  -0.0776  0.5229  1.0000  -1.8423   0.0000   0.0000   0.0000   0.3135
   6.400   1.0823   0.01648   0.00920  -0.0772  0.5150  1.0000  -1.8721   0.0000   0.0000   0.0000   0.3124
   6.500   1.0916   0.01660   0.00930  -0.0768  0.5077  1.0000  -1.9034   0.0000   0.0000   0.0000   0.3113
   6.700   1.1101   0.01685   0.00950  -0.0761  0.4928  1.0000  -1.9705   0.0000   0.0000   0.0000   0.3093
   6.800   1.1191   0.01699   0.00963  -0.0758  0.4852  1.0000  -2.0106   0.0000   0.0000   0.0000   0.3082
   6.900   1.1285   0.01712   0.00971  -0.0754  0.4781  1.0000  -2.0519   0.0000   0.0000   0.0000   0.3072
   7.000   1.1371   0.01727   0.00985  -0.0750  0.4702  1.0000  -2.0918   0.0000   0.0000   0.0000   0.3062
   7.100   1.1457   0.01743   0.01000  -0.0746  0.4622  1.0000  -2.1317   0.0000   0.0000   0.0000   0.3052
   7.200   1.1544   0.01760   0.01013  -0.0742  0.4546  1.0000  -2.1724   0.0000   0.0000   0.0000   0.3043
   7.300   1.1631   0.01776   0.01025  -0.0738  0.4470  1.0000  -2.2132   0.0000   0.0000   0.0000   0.3033
   7.400   1.1711   0.01794   0.01050  -0.0733  0.4386  1.0000  -2.2525   0.0000   0.0000   0.0000   0.3023
   7.500   1.1793   0.01813   0.01067  -0.0729  0.4306  1.0000  -2.2925   0.0000   0.0000   0.0000   0.3014
   7.600   1.1876   0.01832   0.01082  -0.0724  0.4230  1.0000  -2.3334   0.0000   0.0000   0.0000   0.3004
   7.700   1.1955   0.01852   0.01099  -0.0719  0.4151  1.0000  -2.3781   0.0000   0.0000   0.0000   0.2994
   7.800   1.2031   0.01873   0.01119  -0.0714  0.4067  1.0000  -2.4228   0.0000   0.0000   0.0000   0.2985
   7.900   1.2107   0.01894   0.01138  -0.0709  0.3988  1.0000  -2.4680   0.0000   0.0000   0.0000   0.2975
   8.000   1.2184   0.01917   0.01156  -0.0704  0.3912  1.0000  -2.5137   0.0000   0.0000   0.0000   0.2966
   8.100   1.2257   0.01939   0.01177  -0.0698  0.3831  1.0000  -2.5584   0.0000   0.0000   0.0000   0.2957
   8.200   1.2327   0.01963   0.01200  -0.0692  0.3750  1.0000  -2.6027   0.0000   0.0000   0.0000   0.2947
   8.300   1.2398   0.01988   0.01222  -0.0687  0.3673  1.0000  -2.6475   0.0000   0.0000   0.0000   0.2938
   8.500   1.2534   0.02039   0.01268  -0.0674  0.3519  1.0000  -2.7360   0.0000   0.0000   0.0000   0.2919
   8.600   1.2600   0.02066   0.01293  -0.0668  0.3443  1.0000  -2.7799   0.0000   0.0000   0.0000   0.2910
   8.700   1.2665   0.02095   0.01316  -0.0662  0.3372  1.0000  -2.8241   0.0000   0.0000   0.0000   0.2901
   8.800   1.2726   0.02123   0.01343  -0.0655  0.3297  1.0000  -2.8673   0.0000   0.0000   0.0000   0.2892
   8.900   1.2786   0.02152   0.01371  -0.0648  0.3222  1.0000  -2.9101   0.0000   0.0000   0.0000   0.2882
   9.000   1.2845   0.02183   0.01398  -0.0642  0.3153  1.0000  -2.9532   0.0000   0.0000   0.0000   0.2873
   9.100   1.2901   0.02213   0.01426  -0.0634  0.3083  1.0000  -2.9956   0.0000   0.0000   0.0000   0.2864
   9.200   1.2954   0.02244   0.01457  -0.0627  0.3010  1.0000  -3.0371   0.0000   0.0000   0.0000   0.2855
   9.300   1.3007   0.02278   0.01486  -0.0619  0.2944  1.0000  -3.0790   0.0000   0.0000   0.0000   0.2845
   9.400   1.3056   0.02310   0.01517  -0.0611  0.2877  1.0000  -3.1199   0.0000   0.0000   0.0000   0.2836
   9.500   1.3099   0.02343   0.01549  -0.0602  0.2810  1.0000  -3.1590   0.0000   0.0000   0.0000   0.2826
   9.600   1.3141   0.02378   0.01583  -0.0593  0.2753  1.0000  -3.1987   0.0000   0.0000   0.0000   0.2816
   9.700   1.3179   0.02412   0.01620  -0.0584  0.2686  1.0000  -3.2366   0.0000   0.0000   0.0000   0.2806
   9.800   1.3220   0.02450   0.01655  -0.0576  0.2627  1.0000  -3.2757   0.0000   0.0000   0.0000   0.2797
   9.900   1.3259   0.02488   0.01691  -0.0567  0.2569  1.0000  -3.3143   0.0000   0.0000   0.0000   0.2787
  10.000   1.3298   0.02528   0.01730  -0.0559  0.2508  1.0000  -3.3526   0.0000   0.0000   0.0000   0.2778
  10.100   1.3337   0.02570   0.01767  -0.0550  0.2455  1.0000  -3.3916   0.0000   0.0000   0.0000   0.2769
  10.200   1.3373   0.02611   0.01811  -0.0542  0.2395  1.0000  -3.4291   0.0000   0.0000   0.0000   0.2761
  10.300   1.3412   0.02656   0.01848  -0.0535  0.2346  1.0000  -3.4683   0.0000   0.0000   0.0000   0.2752
  10.400   1.3446   0.02699   0.01896  -0.0527  0.2286  1.0000  -3.5050   0.0000   0.0000   0.0000   0.2743
  10.500   1.3483   0.02745   0.01937  -0.0519  0.2238  1.0000  -3.5435   0.0000   0.0000   0.0000   0.2735
  10.600   1.3515   0.02791   0.01986  -0.0511  0.2182  1.0000  -3.5801   0.0000   0.0000   0.0000   0.2727
  10.700   1.3550   0.02840   0.02031  -0.0504  0.2135  1.0000  -3.6181   0.0000   0.0000   0.0000   0.2719
  10.800   1.3581   0.02888   0.02082  -0.0497  0.2081  1.0000  -3.6542   0.0000   0.0000   0.0000   0.2711
  10.900   1.3614   0.02939   0.02129  -0.0489  0.2035  1.0000  -3.6915   0.0000   0.0000   0.0000   0.2703
  11.000   1.3643   0.02990   0.02182  -0.0482  0.1984  1.0000  -3.7271   0.0000   0.0000   0.0000   0.2695
  11.100   1.3674   0.03043   0.02232  -0.0475  0.1941  1.0000  -3.7640   0.0000   0.0000   0.0000   0.2687
  11.200   1.3701   0.03097   0.02288  -0.0468  0.1891  1.0000  -3.7990   0.0000   0.0000   0.0000   0.2680
  11.300   1.3731   0.03153   0.02338  -0.0461  0.1851  1.0000  -3.8360   0.0000   0.0000   0.0000   0.2672
  11.400   1.3757   0.03209   0.02400  -0.0454  0.1802  1.0000  -3.8699   0.0000   0.0000   0.0000   0.2665
  11.500   1.3786   0.03267   0.02451  -0.0448  0.1765  1.0000  -3.9067   0.0000   0.0000   0.0000   0.2658
  11.600   1.3809   0.03327   0.02517  -0.0441  0.1718  1.0000  -3.9396   0.0000   0.0000   0.0000   0.2650
  11.700   1.3835   0.03387   0.02573  -0.0435  0.1680  1.0000  -3.9752   0.0000   0.0000   0.0000   0.2643
  11.800   1.3859   0.03449   0.02638  -0.0428  0.1638  1.0000  -4.0085   0.0000   0.0000   0.0000   0.2636
  11.900   1.3883   0.03512   0.02700  -0.0422  0.1599  1.0000  -4.0428   0.0000   0.0000   0.0000   0.2630
  12.000   1.3907   0.03577   0.02766  -0.0416  0.1563  1.0000  -4.0770   0.0000   0.0000   0.0000   0.2623
  12.100   1.3929   0.03642   0.02835  -0.0410  0.1523  1.0000  -4.1095   0.0000   0.0000   0.0000   0.2616
  12.200   1.3956   0.03706   0.02891  -0.0404  0.1492  1.0000  -4.1460   0.0000   0.0000   0.0000   0.2610
  12.300   1.3973   0.03778   0.02971  -0.0398  0.1453  1.0000  -4.1752   0.0000   0.0000   0.0000   0.2603
  12.400   1.3994   0.03846   0.03037  -0.0392  0.1420  1.0000  -4.2086   0.0000   0.0000   0.0000   0.2597
  12.500   1.4016   0.03916   0.03107  -0.0387  0.1387  1.0000  -4.2415   0.0000   0.0000   0.0000   0.2591
  12.600   1.4032   0.03989   0.03184  -0.0381  0.1353  1.0000  -4.2746   0.0000   0.0000   0.0000   0.2584
  12.700   1.4057   0.04057   0.03246  -0.0376  0.1325  1.0000  -4.3127   0.0000   0.0000   0.0000   0.2578
  12.800   1.4071   0.04135   0.03331  -0.0371  0.1292  1.0000  -4.3436   0.0000   0.0000   0.0000   0.2572
  12.900   1.4088   0.04210   0.03406  -0.0365  0.1262  1.0000  -4.3775   0.0000   0.0000   0.0000   0.2566
  13.000   1.4115   0.04279   0.03468  -0.0360  0.1237  1.0000  -4.4163   0.0000   0.0000   0.0000   0.2560
  13.100   1.4122   0.04364   0.03563  -0.0355  0.1205  1.0000  -4.4437   0.0000   0.0000   0.0000   0.2555
  13.200   1.4140   0.04440   0.03638  -0.0351  0.1179  1.0000  -4.4779   0.0000   0.0000   0.0000   0.2549
  13.300   1.4165   0.04513   0.03706  -0.0346  0.1155  1.0000  -4.5150   0.0000   0.0000   0.0000   0.2543
  13.400   1.4171   0.04602   0.03804  -0.0341  0.1127  1.0000  -4.5417   0.0000   0.0000   0.0000   0.2538
  13.500   1.4189   0.04680   0.03880  -0.0337  0.1103  1.0000  -4.5758   0.0000   0.0000   0.0000   0.2533
  13.600   1.4217   0.04752   0.03946  -0.0332  0.1081  1.0000  -4.6140   0.0000   0.0000   0.0000   0.2527
  13.700   1.4218   0.04848   0.04053  -0.0328  0.1056  1.0000  -4.6379   0.0000   0.0000   0.0000   0.2522
  13.800   1.4234   0.04929   0.04134  -0.0324  0.1034  1.0000  -4.6706   0.0000   0.0000   0.0000   0.2517
  13.900   1.4276   0.04991   0.04184  -0.0319  0.1014  1.0000  -4.7152   0.0000   0.0000   0.0000   0.2511
  14.000   1.4268   0.05098   0.04305  -0.0315  0.0992  1.0000  -4.7341   0.0000   0.0000   0.0000   0.2507
  14.100   1.4280   0.05186   0.04396  -0.0312  0.0971  1.0000  -4.7636   0.0000   0.0000   0.0000   0.2502
  14.200   1.4312   0.05255   0.04458  -0.0308  0.0953  1.0000  -4.8040   0.0000   0.0000   0.0000   0.2497
  14.300   1.4328   0.05343   0.04549  -0.0304  0.0934  1.0000  -4.8341   0.0000   0.0000   0.0000   0.2492
  14.400   1.4327   0.05446   0.04664  -0.0301  0.0916  1.0000  -4.8566   0.0000   0.0000   0.0000   0.2487
  14.500   1.4346   0.05529   0.04746  -0.0297  0.0898  1.0000  -4.8898   0.0000   0.0000   0.0000   0.2483
  14.600   1.4403   0.05578   0.04783  -0.0293  0.0881  1.0000  -4.9407   0.0000   0.0000   0.0000   0.2478
  14.700   1.4391   0.05696   0.04913  -0.0290  0.0866  1.0000  -4.9562   0.0000   0.0000   0.0000   0.2473
  14.800   1.4392   0.05800   0.05025  -0.0287  0.0850  1.0000  -4.9789   0.0000   0.0000   0.0000   0.2469
  14.900   1.4414   0.05883   0.05109  -0.0284  0.0836  1.0000  -5.0154   0.0000   0.0000   0.0000   0.2465
  15.000   1.4480   0.05926   0.05140  -0.0281  0.0821  1.0000  -5.0741   0.0000   0.0000   0.0000   0.2460
  15.100   1.4480   0.06036   0.05259  -0.0278  0.0808  1.0000  -5.0979   0.0000   0.0000   0.0000   0.2455
  15.200   1.4476   0.06149   0.05382  -0.0275  0.0795  1.0000  -5.1204   0.0000   0.0000   0.0000   0.2452
  15.300   1.4490   0.06244   0.05481  -0.0272  0.0783  1.0000  -5.1526   0.0000   0.0000   0.0000   0.2448
  15.400   1.4532   0.06311   0.05544  -0.0270  0.0771  1.0000  -5.1992   0.0000   0.0000   0.0000   0.2443
  15.500   1.4618   0.06340   0.05562  -0.0265  0.0758  1.0000  -5.2647   0.0000   0.0000   0.0000   0.2437
  15.600   1.4592   0.06478   0.05716  -0.0263  0.0748  1.0000  -5.2751   0.0000   0.0000   0.0000   0.2434
  15.700   1.4587   0.06598   0.05844  -0.0261  0.0738  1.0000  -5.2960   0.0000   0.0000   0.0000   0.2431
  15.800   1.4601   0.06697   0.05948  -0.0259  0.0728  1.0000  -5.3270   0.0000   0.0000   0.0000   0.2427
  15.900   1.4638   0.06772   0.06022  -0.0257  0.0718  1.0000  -5.3702   0.0000   0.0000   0.0000   0.2423
  16.000   1.4758   0.06767   0.06003  -0.0252  0.0706  1.0000  -5.4525   0.0000   0.0000   0.0000   0.2416
  16.100   1.4737   0.06904   0.06152  -0.0250  0.0699  1.0000  -5.4651   0.0000   0.0000   0.0000   0.2414
  16.200   1.4711   0.07049   0.06309  -0.0250  0.0692  1.0000  -5.4748   0.0000   0.0000   0.0000   0.2411
  16.300   1.4699   0.07180   0.06449  -0.0249  0.0684  1.0000  -5.4919   0.0000   0.0000   0.0000   0.2408
  16.400   1.4704   0.07292   0.06567  -0.0247  0.0677  1.0000  -5.5180   0.0000   0.0000   0.0000   0.2405
  16.500   1.4731   0.07380   0.06656  -0.0246  0.0669  1.0000  -5.5563   0.0000   0.0000   0.0000   0.2402
  16.600   1.4802   0.07421   0.06694  -0.0243  0.0660  1.0000  -5.6162   0.0000   0.0000   0.0000   0.2397
  16.700   1.4880   0.07464   0.06732  -0.0239  0.0651  1.0000  -5.6773   0.0000   0.0000   0.0000   0.2392
  16.800   1.4826   0.07641   0.06924  -0.0240  0.0647  1.0000  -5.6784   0.0000   0.0000   0.0000   0.2391
  16.900   1.4783   0.07810   0.07106  -0.0241  0.0642  1.0000  -5.6850   0.0000   0.0000   0.0000   0.2390
  17.000   1.4753   0.07969   0.07275  -0.0242  0.0637  1.0000  -5.6978   0.0000   0.0000   0.0000   0.2388
  17.100   1.4735   0.08114   0.07429  -0.0243  0.0632  1.0000  -5.7175   0.0000   0.0000   0.0000   0.2387
  17.200   1.4732   0.08243   0.07564  -0.0243  0.0627  1.0000  -5.7458   0.0000   0.0000   0.0000   0.2385
  17.300   1.4742   0.08355   0.07680  -0.0243  0.0621  1.0000  -5.7816   0.0000   0.0000   0.0000   0.2383
  17.400   1.4784   0.08431   0.07756  -0.0241  0.0615  1.0000  -5.8356   0.0000   0.0000   0.0000   0.2379
  17.500   1.4925   0.08398   0.07712  -0.0235  0.0607  1.0000  -5.9450   0.0000   0.0000   0.0000   0.2371
  17.600   1.4905   0.08551   0.07872  -0.0236  0.0604  1.0000  -5.9625   0.0000   0.0000   0.0000   0.2370
  17.700   1.4830   0.08766   0.08101  -0.0241  0.0601  1.0000  -5.9491   0.0000   0.0000   0.0000   0.2371
  17.800   1.4757   0.08984   0.08332  -0.0246  0.0599  1.0000  -5.9361   0.0000   0.0000   0.0000   0.2374
  17.900   1.4685   0.09204   0.08565  -0.0252  0.0597  1.0000  -5.9233   0.0000   0.0000   0.0000   0.2376
  18.000   1.4615   0.09426   0.08800  -0.0259  0.0594  1.0000  -5.9106   0.0000   0.0000   0.0000   0.2379
  18.100   1.4546   0.09652   0.09038  -0.0267  0.0592  1.0000  -5.8976   0.0000   0.0000   0.0000   0.2383
  18.200   1.4478   0.09881   0.09278  -0.0275  0.0590  1.0000  -5.8844   0.0000   0.0000   0.0000   0.2387
  18.300   1.4411   0.10113   0.09520  -0.0285  0.0587  1.0000  -5.8708   0.0000   0.0000   0.0000   0.2392
  18.400   1.4343   0.10348   0.09766  -0.0294  0.0585  1.0000  -5.8566   0.0000   0.0000   0.0000   0.2397
  18.500   1.4277   0.10586   0.10013  -0.0305  0.0583  1.0000  -5.8418   0.0000   0.0000   0.0000   0.2403
  18.600   1.4211   0.10827   0.10264  -0.0316  0.0581  1.0000  -5.8264   0.0000   0.0000   0.0000   0.2410
  18.700   1.4145   0.11071   0.10517  -0.0328  0.0579  1.0000  -5.8107   0.0000   0.0000   0.0000   0.2417
  18.800   1.4081   0.11316   0.10771  -0.0341  0.0577  1.0000  -5.7947   0.0000   0.0000   0.0000   0.2424
  18.900   1.4020   0.11562   0.11024  -0.0354  0.0575  1.0000  -5.7795   0.0000   0.0000   0.0000   0.2432
  19.000   1.3971   0.11788   0.11257  -0.0366  0.0573  1.0000  -5.7715   0.0000   0.0000   0.0000   0.2439
  19.100   1.4339   0.11316   0.10756  -0.0326  0.0560  1.0000  -6.0418   0.0000   0.0000   0.0000   0.2403
  19.200   1.4230   0.11631   0.11084  -0.0344  0.0559  1.0000  -5.9951   0.0000   0.0000   0.0000   0.2415
  19.300   1.4118   0.11960   0.11424  -0.0364  0.0559  1.0000  -5.9445   0.0000   0.0000   0.0000   0.2428
  19.400   1.4003   0.12302   0.11779  -0.0386  0.0559  1.0000  -5.8895   0.0000   0.0000   0.0000   0.2444
  19.500   1.3885   0.12661   0.12149  -0.0410  0.0559  1.0000  -5.8295   0.0000   0.0000   0.0000   0.2460
  19.600   1.3763   0.13036   0.12535  -0.0435  0.0559  1.0000  -5.7640   0.0000   0.0000   0.0000   0.2479
  19.700   1.3637   0.13431   0.12941  -0.0463  0.0560  1.0000  -5.6922   0.0000   0.0000   0.0000   0.2500
  19.800   1.3508   0.13845   0.13365  -0.0493  0.0560  1.0000  -5.6137   0.0000   0.0000   0.0000   0.2523


