xflr5 v6.57

 Calculated polar for: QX0123

 1 1 Reynolds number fixed          Mach number fixed         

 xtrf =   1.000 (top)        1.000 (bottom)
 Mach =   0.000     Re =     0.280 e 6     Ncrit =   9.000

  alpha     CL        CD       CDp       Cm    Top Xtr Bot Xtr   Cpmin    Chinge    XCp    
 ------- -------- --------- --------- -------- ------- ------- -------- --------- ---------
 -10.000  -0.4252   0.06933   0.06634  -0.0698  0.9757  0.0392  -3.3219   0.0000   0.0000   0.0000   0.0694
  -9.900  -0.4259   0.06682   0.06382  -0.0720  0.9719  0.0389  -3.3484   0.0000   0.0000   0.0000   0.0646
  -9.800  -0.4585   0.05462   0.05149  -0.0864  0.9615  0.0377  -3.7614   0.0000   0.0000   0.0000   0.0460
  -9.700  -0.4830   0.04918   0.04585  -0.0924  0.9516  0.0371  -3.9741   0.0000   0.0000   0.0000   0.0438
  -9.600  -0.5034   0.04455   0.04093  -0.0952  0.9450  0.0366  -4.1643   0.0000   0.0000   0.0000   0.0466
  -9.500  -0.5174   0.04075   0.03683  -0.0965  0.9395  0.0363  -4.3104   0.0000   0.0000   0.0000   0.0496
  -9.400  -0.5244   0.03793   0.03373  -0.0969  0.9356  0.0363  -4.3971   0.0000   0.0000   0.0000   0.0515
  -9.300  -0.5264   0.03579   0.03134  -0.0970  0.9319  0.0365  -4.4411   0.0000   0.0000   0.0000   0.0520
  -9.200  -0.5259   0.03409   0.02941  -0.0968  0.9290  0.0368  -4.4593   0.0000   0.0000   0.0000   0.0523
  -9.100  -0.5235   0.03266   0.02777  -0.0966  0.9266  0.0372  -4.4606   0.0000   0.0000   0.0000   0.0520
  -9.000  -0.5192   0.03141   0.02632  -0.0965  0.9236  0.0376  -4.4480   0.0000   0.0000   0.0000   0.0507
  -8.900  -0.5140   0.03036   0.02508  -0.0962  0.9211  0.0380  -4.4245   0.0000   0.0000   0.0000   0.0493
  -8.800  -0.5082   0.02949   0.02403  -0.0959  0.9189  0.0384  -4.3916   0.0000   0.0000   0.0000   0.0478
  -8.700  -0.5018   0.02878   0.02316  -0.0955  0.9171  0.0388  -4.3502   0.0000   0.0000   0.0000   0.0462
  -8.600  -0.4939   0.02820   0.02242  -0.0954  0.9148  0.0391  -4.2990   0.0000   0.0000   0.0000   0.0434
  -8.500  -0.4857   0.02774   0.02183  -0.0952  0.9125  0.0393  -4.2414   0.0000   0.0000   0.0000   0.0405
  -8.400  -0.4788   0.02684   0.02077  -0.0949  0.9104  0.0396  -4.1996   0.0000   0.0000   0.0000   0.0382
  -8.300  -0.4727   0.02557   0.01936  -0.0947  0.9086  0.0400  -4.1654   0.0000   0.0000   0.0000   0.0362
  -8.200  -0.4651   0.02479   0.01850  -0.0944  0.9070  0.0404  -4.1098   0.0000   0.0000   0.0000   0.0336
  -8.100  -0.4563   0.02423   0.01790  -0.0942  0.9051  0.0407  -4.0436   0.0000   0.0000   0.0000   0.0300
  -8.000  -0.4469   0.02377   0.01741  -0.0942  0.9029  0.0411  -3.9727   0.0000   0.0000   0.0000   0.0257
  -7.900  -0.4376   0.02338   0.01697  -0.0940  0.9010  0.0415  -3.9040   0.0000   0.0000   0.0000   0.0215
  -7.800  -0.4284   0.02300   0.01655  -0.0938  0.8992  0.0418  -3.8472   0.0000   0.0000   0.0000   0.0174
  -7.700  -0.4192   0.02264   0.01614  -0.0935  0.8975  0.0422  -3.7914   0.0000   0.0000   0.0000   0.0132
  -7.600  -0.4101   0.02229   0.01572  -0.0932  0.8961  0.0426  -3.7365   0.0000   0.0000   0.0000   0.0089
  -7.500  -0.4003   0.02192   0.01530  -0.0931  0.8941  0.0430  -3.6809   0.0000   0.0000   0.0000   0.0035
  -7.400  -0.3904   0.02156   0.01488  -0.0930  0.8919  0.0434  -3.6259   0.0000   0.0000   0.0000  -0.0022
  -7.300  -0.3807   0.02120   0.01446  -0.0928  0.8899  0.0438  -3.5716   0.0000   0.0000   0.0000  -0.0079
  -7.200  -0.3710   0.02086   0.01406  -0.0926  0.8882  0.0442  -3.5173   0.0000   0.0000   0.0000  -0.0137
  -7.100  -0.3613   0.02057   0.01370  -0.0923  0.8866  0.0448  -3.4611   0.0000   0.0000   0.0000  -0.0198
  -7.000  -0.3516   0.02031   0.01338  -0.0920  0.8852  0.0455  -3.4045   0.0000   0.0000   0.0000  -0.0261
  -6.900  -0.3412   0.02008   0.01308  -0.0920  0.8832  0.0462  -3.3466   0.0000   0.0000   0.0000  -0.0340
  -6.800  -0.3307   0.01987   0.01280  -0.0919  0.8811  0.0468  -3.2888   0.0000   0.0000   0.0000  -0.0425
  -6.700  -0.3203   0.01972   0.01257  -0.0918  0.8792  0.0474  -3.2308   0.0000   0.0000   0.0000  -0.0513
  -6.600  -0.3112   0.01901   0.01184  -0.0915  0.8775  0.0483  -3.1868   0.0000   0.0000   0.0000  -0.0591
  -6.500  -0.3016   0.01863   0.01147  -0.0913  0.8760  0.0490  -3.1305   0.0000   0.0000   0.0000  -0.0678
  -6.400  -0.2918   0.01836   0.01119  -0.0910  0.8746  0.0498  -3.0726   0.0000   0.0000   0.0000  -0.0773
  -6.300  -0.2815   0.01812   0.01094  -0.0909  0.8728  0.0506  -3.0151   0.0000   0.0000   0.0000  -0.0884
  -6.200  -0.2710   0.01788   0.01070  -0.0908  0.8706  0.0515  -2.9582   0.0000   0.0000   0.0000  -0.1011
  -6.100  -0.2606   0.01765   0.01043  -0.0907  0.8686  0.0526  -2.9034   0.0000   0.0000   0.0000  -0.1141
  -6.000  -0.2503   0.01742   0.01016  -0.0905  0.8668  0.0539  -2.8500   0.0000   0.0000   0.0000  -0.1279
  -5.900  -0.2399   0.01724   0.00990  -0.0902  0.8653  0.0551  -2.7966   0.0000   0.0000   0.0000  -0.1430
  -5.800  -0.2303   0.01683   0.00949  -0.0900  0.8639  0.0565  -2.7475   0.0000   0.0000   0.0000  -0.1578
  -5.700  -0.2204   0.01657   0.00925  -0.0898  0.8626  0.0579  -2.6904   0.0000   0.0000   0.0000  -0.1747
  -5.600  -0.2096   0.01640   0.00911  -0.0898  0.8603  0.0596  -2.6309   0.0000   0.0000   0.0000  -0.1964
  -5.500  -0.1989   0.01624   0.00893  -0.0897  0.8582  0.0615  -2.5740   0.0000   0.0000   0.0000  -0.2195
  -5.400  -0.1882   0.01611   0.00873  -0.0896  0.8564  0.0633  -2.5184   0.0000   0.0000   0.0000  -0.2450
  -5.300  -0.1783   0.01580   0.00845  -0.0894  0.8548  0.0652  -2.4643   0.0000   0.0000   0.0000  -0.2709
  -5.200  -0.1679   0.01563   0.00830  -0.0892  0.8534  0.0671  -2.4052   0.0000   0.0000   0.0000  -0.3014
  -5.100  -0.1574   0.01550   0.00814  -0.0890  0.8522  0.0692  -2.3604   0.0000   0.0000   0.0000  -0.3364
  -5.000  -0.1465   0.01540   0.00800  -0.0889  0.8501  0.0715  -2.3179   0.0000   0.0000   0.0000  -0.3795
  -4.900  -0.1361   0.01518   0.00782  -0.0889  0.8478  0.0736  -2.2744   0.0000   0.0000   0.0000  -0.4267
  -4.800  -0.1254   0.01506   0.00771  -0.0888  0.8458  0.0759  -2.2278   0.0000   0.0000   0.0000  -0.4827
  -4.700  -0.1147   0.01494   0.00757  -0.0887  0.8441  0.0786  -2.1831   0.0000   0.0000   0.0000  -0.5492
  -4.600  -0.1042   0.01477   0.00739  -0.0885  0.8426  0.0812  -2.1394   0.0000   0.0000   0.0000  -0.6270
  -4.500  -0.0937   0.01463   0.00726  -0.0883  0.8412  0.0839  -2.0930   0.0000   0.0000   0.0000  -0.7224
  -4.400  -0.0828   0.01454   0.00714  -0.0882  0.8394  0.0874  -2.0481   0.0000   0.0000   0.0000  -0.8483
  -4.300  -0.0722   0.01437   0.00702  -0.0882  0.8369  0.0907  -2.0031   0.0000   0.0000   0.0000  -1.0093
  -4.200  -0.0613   0.01427   0.00691  -0.0881  0.8349  0.0949  -1.9570   0.0000   0.0000   0.0000  -1.2296
  -4.100  -0.0508   0.01410   0.00677  -0.0880  0.8332  0.0993  -1.9116   0.0000   0.0000   0.0000  -1.5348
  -4.000  -0.0399   0.01400   0.00665  -0.0879  0.8317  0.1048  -1.8657   0.0000   0.0000   0.0000  -2.0159
  -3.900  -0.0293   0.01385   0.00654  -0.0878  0.8303  0.1102  -1.8189   0.0000   0.0000   0.0000  -2.8288
  -3.800  -0.0185   0.01374   0.00645  -0.0876  0.8290  0.1164  -1.7724   0.0000   0.0000   0.0000  -4.6098
  -3.700  -0.0075   0.01366   0.00640  -0.0877  0.8263  0.1232  -1.7264   0.0000   0.0000   0.0000  -11.7071
  -3.600   0.0034   0.01356   0.00632  -0.0877  0.8241  0.1305  -1.6808   0.0000   0.0000   0.0000  26.8138
  -3.500   0.0142   0.01344   0.00621  -0.0876  0.8222  0.1379  -1.6355   0.0000   0.0000   0.0000   6.5663
  -3.400   0.0249   0.01329   0.00609  -0.0875  0.8206  0.1453  -1.5904   0.0000   0.0000   0.0000   3.8406
  -3.300   0.0357   0.01315   0.00598  -0.0873  0.8192  0.1530  -1.5453   0.0000   0.0000   0.0000   2.7497
  -3.200   0.0466   0.01303   0.00588  -0.0872  0.8180  0.1614  -1.5002   0.0000   0.0000   0.0000   2.1627
  -3.100   0.0575   0.01295   0.00585  -0.0873  0.8152  0.1707  -1.4555   0.0000   0.0000   0.0000   1.7985
  -3.000   0.0685   0.01285   0.00580  -0.0872  0.8129  0.1805  -1.4108   0.0000   0.0000   0.0000   1.5504
  -2.900   0.0793   0.01273   0.00572  -0.0872  0.8110  0.1912  -1.3662   0.0000   0.0000   0.0000   1.3703
  -2.800   0.0903   0.01261   0.00563  -0.0871  0.8093  0.2031  -1.3219   0.0000   0.0000   0.0000   1.2329
  -2.700   0.1012   0.01248   0.00554  -0.0870  0.8078  0.2158  -1.2777   0.0000   0.0000   0.0000   1.1251
  -2.600   0.1121   0.01236   0.00546  -0.0869  0.8064  0.2302  -1.2337   0.0000   0.0000   0.0000   1.0382
  -2.500   0.1229   0.01228   0.00545  -0.0869  0.8034  0.2461  -1.1904   0.0000   0.0000   0.0000   0.9685
  -2.400   0.1338   0.01217   0.00540  -0.0869  0.8011  0.2629  -1.1472   0.0000   0.0000   0.0000   0.9095
  -2.300   0.1446   0.01203   0.00533  -0.0868  0.7991  0.2811  -1.1043   0.0000   0.0000   0.0000   0.8590
  -2.200   0.1555   0.01189   0.00526  -0.0867  0.7975  0.3013  -1.0616   0.0000   0.0000   0.0000   0.8154
  -2.100   0.1664   0.01175   0.00518  -0.0866  0.7960  0.3241  -1.0192   0.0000   0.0000   0.0000   0.7773
  -2.000   0.1771   0.01163   0.00515  -0.0866  0.7938  0.3490  -0.9776   0.0000   0.0000   0.0000   0.7448
  -1.900   0.1877   0.01150   0.00514  -0.0865  0.7910  0.3763  -0.9366   0.0000   0.0000   0.0000   0.7163
  -1.800   0.1984   0.01135   0.00510  -0.0865  0.7888  0.4068  -0.8958   0.0000   0.0000   0.0000   0.6905
  -1.700   0.2089   0.01118   0.00505  -0.0863  0.7870  0.4411  -0.8554   0.0000   0.0000   0.0000   0.6672
  -1.600   0.2195   0.01101   0.00500  -0.0862  0.7854  0.4785  -0.8154   0.0000   0.0000   0.0000   0.6460
  -1.500   0.2299   0.01085   0.00496  -0.0859  0.7841  0.5186  -0.7757   0.0000   0.0000   0.0000   0.6267
  -1.400   0.2400   0.01074   0.00500  -0.0858  0.7810  0.5576  -0.7473   0.0000   0.0000   0.0000   0.6099
  -1.300   0.2502   0.01061   0.00501  -0.0855  0.7785  0.5944  -0.7200   0.0000   0.0000   0.0000   0.5939
  -1.200   0.2603   0.01049   0.00500  -0.0851  0.7764  0.6308  -0.6927   0.0000   0.0000   0.0000   0.5789
  -1.100   0.2705   0.01036   0.00497  -0.0847  0.7746  0.6647  -0.6657   0.0000   0.0000   0.0000   0.5647
  -1.000   0.2807   0.01027   0.00494  -0.0843  0.7731  0.6954  -0.6386   0.0000   0.0000   0.0000   0.5515
  -0.900   0.2906   0.01021   0.00498  -0.0839  0.7700  0.7210  -0.6403   0.0000   0.0000   0.0000   0.5397
  -0.800   0.3006   0.01015   0.00499  -0.0835  0.7672  0.7438  -0.6476   0.0000   0.0000   0.0000   0.5284
  -0.700   0.3107   0.01009   0.00496  -0.0831  0.7650  0.7643  -0.6551   0.0000   0.0000   0.0000   0.5177
  -0.600   0.3208   0.01002   0.00492  -0.0826  0.7632  0.7833  -0.6635   0.0000   0.0000   0.0000   0.5075
  -0.500   0.3309   0.00995   0.00488  -0.0821  0.7617  0.8015  -0.6721   0.0000   0.0000   0.0000   0.4979
  -0.400   0.3405   0.00994   0.00492  -0.0816  0.7583  0.8186  -0.6800   0.0000   0.0000   0.0000   0.4894
  -0.300   0.3502   0.00990   0.00491  -0.0811  0.7556  0.8349  -0.6882   0.0000   0.0000   0.0000   0.4810
  -0.200   0.3599   0.00985   0.00488  -0.0805  0.7534  0.8504  -0.6964   0.0000   0.0000   0.0000   0.4730
  -0.100   0.3697   0.00979   0.00482  -0.0799  0.7516  0.8651  -0.7056   0.0000   0.0000   0.0000   0.4653
   0.000   0.3793   0.00976   0.00481  -0.0794  0.7491  0.8801  -0.7150   0.0000   0.0000   0.0000   0.4581
   0.100   0.3888   0.00974   0.00482  -0.0788  0.7459  0.8951  -0.7245   0.0000   0.0000   0.0000   0.4514
   0.200   0.3989   0.00970   0.00478  -0.0783  0.7434  0.9099  -0.7346   0.0000   0.0000   0.0000   0.4448
   0.300   0.4102   0.00965   0.00472  -0.0780  0.7413  0.9248  -0.7453   0.0000   0.0000   0.0000   0.4385
   0.400   0.4232   0.00960   0.00464  -0.0781  0.7395  0.9392  -0.7571   0.0000   0.0000   0.0000   0.4327
   0.500   0.4373   0.00959   0.00466  -0.0786  0.7359  0.9531  -0.7693   0.0000   0.0000   0.0000   0.4277
   0.600   0.4539   0.00956   0.00461  -0.0796  0.7331  0.9650  -0.7830   0.0000   0.0000   0.0000   0.4231
   0.700   0.4716   0.00952   0.00453  -0.0808  0.7307  0.9755  -0.7976   0.0000   0.0000   0.0000   0.4190
   0.800   0.4902   0.00947   0.00443  -0.0822  0.7287  0.9847  -0.8128   0.0000   0.0000   0.0000   0.4152
   0.900   0.5092   0.00945   0.00443  -0.0838  0.7246  0.9933  -0.8281   0.0000   0.0000   0.0000   0.4120
   1.000   0.5285   0.00941   0.00436  -0.0855  0.7214  1.0000  -0.8444   0.0000   0.0000   0.0000   0.4090
   1.100   0.5384   0.00939   0.00428  -0.0852  0.7188  1.0000  -0.8551   0.0000   0.0000   0.0000   0.4055
   1.200   0.5480   0.00939   0.00427  -0.0850  0.7154  1.0000  -0.8655   0.0000   0.0000   0.0000   0.4021
   1.300   0.5578   0.00939   0.00425  -0.0848  0.7116  1.0000  -0.8761   0.0000   0.0000   0.0000   0.3988
   1.400   0.5682   0.00938   0.00419  -0.0846  0.7086  1.0000  -0.8871   0.0000   0.0000   0.0000   0.3956
   1.500   0.5785   0.00938   0.00416  -0.0844  0.7054  1.0000  -0.8982   0.0000   0.0000   0.0000   0.3925
   1.600   0.5886   0.00939   0.00416  -0.0842  0.7012  1.0000  -0.9110   0.0000   0.0000   0.0000   0.3896
   1.700   0.5993   0.00938   0.00411  -0.0841  0.6979  1.0000  -0.9245   0.0000   0.0000   0.0000   0.3867
   1.800   0.6099   0.00938   0.00409  -0.0840  0.6946  1.0000  -0.9380   0.0000   0.0000   0.0000   0.3839
   1.900   0.6203   0.00940   0.00409  -0.0838  0.6904  1.0000  -0.9513   0.0000   0.0000   0.0000   0.3813
   2.000   0.6312   0.00940   0.00406  -0.0837  0.6872  1.0000  -0.9655   0.0000   0.0000   0.0000   0.3787
   2.100   0.6420   0.00942   0.00406  -0.0836  0.6838  1.0000  -0.9798   0.0000   0.0000   0.0000   0.3762
   2.200   0.6526   0.00944   0.00407  -0.0835  0.6796  1.0000  -0.9938   0.0000   0.0000   0.0000   0.3738
   2.300   0.6636   0.00945   0.00405  -0.0834  0.6763  1.0000  -1.0085   0.0000   0.0000   0.0000   0.3714
   2.400   0.6744   0.00947   0.00405  -0.0833  0.6726  1.0000  -1.0234   0.0000   0.0000   0.0000   0.3692
   2.500   0.6851   0.00950   0.00406  -0.0833  0.6683  1.0000  -1.0381   0.0000   0.0000   0.0000   0.3670
   2.600   0.6961   0.00951   0.00404  -0.0832  0.6648  1.0000  -1.0533   0.0000   0.0000   0.0000   0.3648
   2.700   0.7069   0.00954   0.00406  -0.0831  0.6603  1.0000  -1.0682   0.0000   0.0000   0.0000   0.3628
   2.800   0.7177   0.00957   0.00407  -0.0830  0.6560  1.0000  -1.0832   0.0000   0.0000   0.0000   0.3608
   2.900   0.7287   0.00959   0.00405  -0.0829  0.6522  1.0000  -1.0987   0.0000   0.0000   0.0000   0.3588
   3.000   0.7393   0.00962   0.00408  -0.0828  0.6469  1.0000  -1.1147   0.0000   0.0000   0.0000   0.3569
   3.100   0.7502   0.00965   0.00407  -0.0827  0.6427  1.0000  -1.1312   0.0000   0.0000   0.0000   0.3550
   3.200   0.7608   0.00968   0.00410  -0.0826  0.6373  1.0000  -1.1474   0.0000   0.0000   0.0000   0.3532
   3.300   0.7717   0.00971   0.00410  -0.0825  0.6326  1.0000  -1.1639   0.0000   0.0000   0.0000   0.3515
   3.400   0.7823   0.00975   0.00415  -0.0824  0.6272  1.0000  -1.1808   0.0000   0.0000   0.0000   0.3497
   3.500   0.7931   0.00979   0.00415  -0.0822  0.6222  1.0000  -1.1992   0.0000   0.0000   0.0000   0.3481
   3.600   0.8037   0.00983   0.00418  -0.0821  0.6168  1.0000  -1.2175   0.0000   0.0000   0.0000   0.3464
   3.700   0.8145   0.00988   0.00420  -0.0820  0.6116  1.0000  -1.2360   0.0000   0.0000   0.0000   0.3448
   3.800   0.8251   0.00993   0.00423  -0.0819  0.6064  1.0000  -1.2545   0.0000   0.0000   0.0000   0.3433
   3.900   0.8358   0.00998   0.00426  -0.0818  0.6012  1.0000  -1.2731   0.0000   0.0000   0.0000   0.3418
   4.000   0.8465   0.01004   0.00430  -0.0817  0.5960  1.0000  -1.2917   0.0000   0.0000   0.0000   0.3403
   4.100   0.8571   0.01010   0.00433  -0.0816  0.5906  1.0000  -1.3104   0.0000   0.0000   0.0000   0.3389
   4.200   0.8677   0.01016   0.00438  -0.0815  0.5853  1.0000  -1.3312   0.0000   0.0000   0.0000   0.3375
   4.300   0.8782   0.01023   0.00442  -0.0814  0.5796  1.0000  -1.3528   0.0000   0.0000   0.0000   0.3361
   4.400   0.8887   0.01030   0.00447  -0.0812  0.5739  1.0000  -1.3744   0.0000   0.0000   0.0000   0.3348
   4.500   0.8992   0.01037   0.00451  -0.0811  0.5683  1.0000  -1.3961   0.0000   0.0000   0.0000   0.3334
   4.600   0.9096   0.01044   0.00457  -0.0810  0.5624  1.0000  -1.4178   0.0000   0.0000   0.0000   0.3321
   4.700   0.9200   0.01052   0.00462  -0.0808  0.5568  1.0000  -1.4403   0.0000   0.0000   0.0000   0.3309
   4.800   0.9304   0.01060   0.00469  -0.0807  0.5505  1.0000  -1.4644   0.0000   0.0000   0.0000   0.3296
   4.900   0.9406   0.01070   0.00474  -0.0805  0.5448  1.0000  -1.4886   0.0000   0.0000   0.0000   0.3284
   5.000   0.9509   0.01078   0.00482  -0.0804  0.5381  1.0000  -1.5128   0.0000   0.0000   0.0000   0.3272
   5.100   0.9610   0.01087   0.00488  -0.0802  0.5320  1.0000  -1.5370   0.0000   0.0000   0.0000   0.3260
   5.200   0.9712   0.01097   0.00499  -0.0800  0.5252  1.0000  -1.5613   0.0000   0.0000   0.0000   0.3248
   5.300   0.9812   0.01107   0.00507  -0.0798  0.5185  1.0000  -1.5856   0.0000   0.0000   0.0000   0.3237
   5.400   0.9912   0.01118   0.00514  -0.0796  0.5121  1.0000  -1.6115   0.0000   0.0000   0.0000   0.3225
   5.500   1.0012   0.01128   0.00523  -0.0795  0.5049  1.0000  -1.6376   0.0000   0.0000   0.0000   0.3214
   5.600   1.0110   0.01139   0.00532  -0.0793  0.4982  1.0000  -1.6637   0.0000   0.0000   0.0000   0.3203
   5.700   1.0209   0.01150   0.00540  -0.0790  0.4914  1.0000  -1.6898   0.0000   0.0000   0.0000   0.3192
   5.800   1.0307   0.01161   0.00550  -0.0789  0.4844  1.0000  -1.7161   0.0000   0.0000   0.0000   0.3182
   5.900   1.0404   0.01174   0.00559  -0.0786  0.4778  1.0000  -1.7448   0.0000   0.0000   0.0000   0.3171
   6.000   1.0501   0.01186   0.00569  -0.0784  0.4706  1.0000  -1.7757   0.0000   0.0000   0.0000   0.3161
   6.100   1.0597   0.01198   0.00580  -0.0782  0.4634  1.0000  -1.8067   0.0000   0.0000   0.0000   0.3151
   6.200   1.0691   0.01213   0.00590  -0.0779  0.4565  1.0000  -1.8375   0.0000   0.0000   0.0000   0.3141
   6.300   1.0786   0.01226   0.00601  -0.0777  0.4488  1.0000  -1.8685   0.0000   0.0000   0.0000   0.3131
   6.400   1.0880   0.01239   0.00613  -0.0774  0.4413  1.0000  -1.8996   0.0000   0.0000   0.0000   0.3121
   6.500   1.0972   0.01255   0.00625  -0.0771  0.4342  1.0000  -1.9314   0.0000   0.0000   0.0000   0.3111
   6.600   1.1064   0.01269   0.00637  -0.0769  0.4266  1.0000  -1.9668   0.0000   0.0000   0.0000   0.3101
   6.700   1.1156   0.01284   0.00650  -0.0766  0.4190  1.0000  -2.0074   0.0000   0.0000   0.0000   0.3092
   6.800   1.1246   0.01300   0.00663  -0.0763  0.4116  1.0000  -2.0478   0.0000   0.0000   0.0000   0.3082
   6.900   1.1333   0.01317   0.00677  -0.0759  0.4040  1.0000  -2.0881   0.0000   0.0000   0.0000   0.3073
   7.000   1.1423   0.01333   0.00691  -0.0756  0.3960  1.0000  -2.1289   0.0000   0.0000   0.0000   0.3064
   7.100   1.1510   0.01351   0.00705  -0.0753  0.3883  1.0000  -2.1695   0.0000   0.0000   0.0000   0.3054
   7.200   1.1594   0.01370   0.00720  -0.0749  0.3808  1.0000  -2.2098   0.0000   0.0000   0.0000   0.3045
   7.300   1.1680   0.01388   0.00741  -0.0746  0.3729  1.0000  -2.2506   0.0000   0.0000   0.0000   0.3036
   7.400   1.1766   0.01405   0.00757  -0.0742  0.3652  1.0000  -2.2943   0.0000   0.0000   0.0000   0.3027
   7.500   1.1848   0.01425   0.00773  -0.0738  0.3578  1.0000  -2.3407   0.0000   0.0000   0.0000   0.3018
   7.600   1.1929   0.01446   0.00790  -0.0734  0.3503  1.0000  -2.3868   0.0000   0.0000   0.0000   0.3009
   7.700   1.2011   0.01465   0.00808  -0.0730  0.3426  1.0000  -2.4337   0.0000   0.0000   0.0000   0.3000
   7.800   1.2091   0.01486   0.00826  -0.0726  0.3351  1.0000  -2.4802   0.0000   0.0000   0.0000   0.2991
   7.900   1.2166   0.01509   0.00845  -0.0721  0.3277  1.0000  -2.5259   0.0000   0.0000   0.0000   0.2982
   8.000   1.2244   0.01530   0.00864  -0.0717  0.3199  1.0000  -2.5723   0.0000   0.0000   0.0000   0.2973
   8.100   1.2320   0.01552   0.00884  -0.0712  0.3123  1.0000  -2.6188   0.0000   0.0000   0.0000   0.2964
   8.200   1.2393   0.01576   0.00905  -0.0707  0.3051  1.0000  -2.6644   0.0000   0.0000   0.0000   0.2956
   8.300   1.2463   0.01601   0.00926  -0.0702  0.2977  1.0000  -2.7100   0.0000   0.0000   0.0000   0.2947
   8.400   1.2537   0.01623   0.00947  -0.0697  0.2902  1.0000  -2.7565   0.0000   0.0000   0.0000   0.2938
   8.500   1.2605   0.01649   0.00969  -0.0692  0.2832  1.0000  -2.8018   0.0000   0.0000   0.0000   0.2929
   8.600   1.2669   0.01676   0.00993  -0.0686  0.2764  1.0000  -2.8462   0.0000   0.0000   0.0000   0.2920
   8.700   1.2739   0.01700   0.01015  -0.0680  0.2693  1.0000  -2.8923   0.0000   0.0000   0.0000   0.2911
   8.800   1.2799   0.01727   0.01039  -0.0674  0.2629  1.0000  -2.9362   0.0000   0.0000   0.0000   0.2902
   8.900   1.2853   0.01754   0.01064  -0.0666  0.2567  1.0000  -2.9786   0.0000   0.0000   0.0000   0.2892
   9.000   1.2913   0.01780   0.01089  -0.0659  0.2504  1.0000  -3.0227   0.0000   0.0000   0.0000   0.2883
   9.100   1.2962   0.01812   0.01117  -0.0651  0.2448  1.0000  -3.0643   0.0000   0.0000   0.0000   0.2874
   9.200   1.3024   0.01838   0.01143  -0.0645  0.2385  1.0000  -3.1093   0.0000   0.0000   0.0000   0.2865
   9.300   1.3077   0.01870   0.01172  -0.0638  0.2330  1.0000  -3.1519   0.0000   0.0000   0.0000   0.2856
   9.400   1.3132   0.01901   0.01202  -0.0632  0.2271  1.0000  -3.1955   0.0000   0.0000   0.0000   0.2848
   9.500   1.3187   0.01933   0.01236  -0.0625  0.2215  1.0000  -3.2390   0.0000   0.0000   0.0000   0.2839
   9.600   1.3236   0.01969   0.01269  -0.0618  0.2160  1.0000  -3.2812   0.0000   0.0000   0.0000   0.2831
   9.700   1.3294   0.02000   0.01300  -0.0613  0.2103  1.0000  -3.3258   0.0000   0.0000   0.0000   0.2823
   9.800   1.3339   0.02039   0.01336  -0.0606  0.2052  1.0000  -3.3671   0.0000   0.0000   0.0000   0.2815
   9.900   1.3399   0.02071   0.01368  -0.0600  0.1995  1.0000  -3.4126   0.0000   0.0000   0.0000   0.2807
  10.000   1.3444   0.02111   0.01406  -0.0594  0.1946  1.0000  -3.4540   0.0000   0.0000   0.0000   0.2799
  10.100   1.3500   0.02146   0.01440  -0.0588  0.1892  1.0000  -3.4987   0.0000   0.0000   0.0000   0.2791
  10.200   1.3544   0.02188   0.01480  -0.0582  0.1846  1.0000  -3.5401   0.0000   0.0000   0.0000   0.2784
  10.300   1.3598   0.02224   0.01517  -0.0577  0.1795  1.0000  -3.5844   0.0000   0.0000   0.0000   0.2776
  10.400   1.3641   0.02268   0.01558  -0.0570  0.1751  1.0000  -3.6257   0.0000   0.0000   0.0000   0.2769
  10.500   1.3692   0.02307   0.01598  -0.0565  0.1703  1.0000  -3.6695   0.0000   0.0000   0.0000   0.2762
  10.600   1.3731   0.02355   0.01643  -0.0559  0.1662  1.0000  -3.7099   0.0000   0.0000   0.0000   0.2754
  10.700   1.3783   0.02395   0.01683  -0.0553  0.1616  1.0000  -3.7539   0.0000   0.0000   0.0000   0.2747
  10.800   1.3816   0.02447   0.01732  -0.0547  0.1578  1.0000  -3.7927   0.0000   0.0000   0.0000   0.2740
  10.900   1.3869   0.02487   0.01774  -0.0542  0.1533  1.0000  -3.8373   0.0000   0.0000   0.0000   0.2733
  11.000   1.3901   0.02541   0.01825  -0.0536  0.1497  1.0000  -3.8760   0.0000   0.0000   0.0000   0.2726
  11.100   1.3951   0.02583   0.01870  -0.0531  0.1454  1.0000  -3.9198   0.0000   0.0000   0.0000   0.2719
  11.200   1.3987   0.02636   0.01921  -0.0525  0.1417  1.0000  -3.9596   0.0000   0.0000   0.0000   0.2712
  11.300   1.4030   0.02684   0.01969  -0.0520  0.1378  1.0000  -4.0016   0.0000   0.0000   0.0000   0.2705
  11.400   1.4069   0.02735   0.02020  -0.0514  0.1340  1.0000  -4.0425   0.0000   0.0000   0.0000   0.2699
  11.500   1.4104   0.02789   0.02074  -0.0509  0.1306  1.0000  -4.0822   0.0000   0.0000   0.0000   0.2692
  11.600   1.4146   0.02839   0.02125  -0.0504  0.1268  1.0000  -4.1241   0.0000   0.0000   0.0000   0.2686
  11.700   1.4170   0.02903   0.02188  -0.0498  0.1238  1.0000  -4.1605   0.0000   0.0000   0.0000   0.2679
  11.800   1.4217   0.02950   0.02239  -0.0493  0.1200  1.0000  -4.2038   0.0000   0.0000   0.0000   0.2673
  11.900   1.4244   0.03013   0.02299  -0.0488  0.1170  1.0000  -4.2411   0.0000   0.0000   0.0000   0.2667
  12.000   1.4280   0.03070   0.02357  -0.0483  0.1138  1.0000  -4.2808   0.0000   0.0000   0.0000   0.2660
  12.100   1.4311   0.03130   0.02418  -0.0478  0.1107  1.0000  -4.3193   0.0000   0.0000   0.0000   0.2654
  12.200   1.4329   0.03201   0.02487  -0.0472  0.1082  1.0000  -4.3538   0.0000   0.0000   0.0000   0.2648
  12.300   1.4368   0.03256   0.02545  -0.0467  0.1049  1.0000  -4.3946   0.0000   0.0000   0.0000   0.2642
  12.400   1.4388   0.03327   0.02616  -0.0462  0.1023  1.0000  -4.4315   0.0000   0.0000   0.0000   0.2636
  12.500   1.4414   0.03394   0.02683  -0.0457  0.0997  1.0000  -4.4711   0.0000   0.0000   0.0000   0.2630
  12.600   1.4440   0.03461   0.02752  -0.0452  0.0970  1.0000  -4.5110   0.0000   0.0000   0.0000   0.2624
  12.700   1.4449   0.03543   0.02831  -0.0447  0.0949  1.0000  -4.5452   0.0000   0.0000   0.0000   0.2619
  12.800   1.4478   0.03609   0.02901  -0.0443  0.0923  1.0000  -4.5854   0.0000   0.0000   0.0000   0.2613
  12.900   1.4498   0.03683   0.02976  -0.0438  0.0899  1.0000  -4.6229   0.0000   0.0000   0.0000   0.2607
  13.000   1.4500   0.03774   0.03064  -0.0433  0.0882  1.0000  -4.6543   0.0000   0.0000   0.0000   0.2602
  13.100   1.4530   0.03841   0.03136  -0.0429  0.0857  1.0000  -4.6944   0.0000   0.0000   0.0000   0.2596
  13.200   1.4546   0.03921   0.03217  -0.0424  0.0836  1.0000  -4.7304   0.0000   0.0000   0.0000   0.2591
  13.300   1.4545   0.04016   0.03310  -0.0420  0.0820  1.0000  -4.7606   0.0000   0.0000   0.0000   0.2586
  13.400   1.4568   0.04090   0.03389  -0.0416  0.0798  1.0000  -4.7982   0.0000   0.0000   0.0000   0.2581
  13.500   1.4582   0.04174   0.03475  -0.0412  0.0780  1.0000  -4.8331   0.0000   0.0000   0.0000   0.2576
  13.600   1.4581   0.04272   0.03572  -0.0408  0.0765  1.0000  -4.8627   0.0000   0.0000   0.0000   0.2571
  13.700   1.4590   0.04362   0.03664  -0.0404  0.0748  1.0000  -4.8949   0.0000   0.0000   0.0000   0.2566
  13.800   1.4605   0.04447   0.03753  -0.0400  0.0730  1.0000  -4.9294   0.0000   0.0000   0.0000   0.2561
  13.900   1.4608   0.04545   0.03851  -0.0397  0.0716  1.0000  -4.9602   0.0000   0.0000   0.0000   0.2557
  14.000   1.4596   0.04658   0.03961  -0.0393  0.0705  1.0000  -4.9854   0.0000   0.0000   0.0000   0.2552
  14.100   1.4617   0.04742   0.04054  -0.0390  0.0687  1.0000  -5.0206   0.0000   0.0000   0.0000   0.2548
  14.200   1.4626   0.04839   0.04153  -0.0388  0.0673  1.0000  -5.0526   0.0000   0.0000   0.0000   0.2544
  14.300   1.4625   0.04946   0.04260  -0.0385  0.0662  1.0000  -5.0815   0.0000   0.0000   0.0000   0.2540
  14.400   1.4615   0.05062   0.04375  -0.0382  0.0652  1.0000  -5.1067   0.0000   0.0000   0.0000   0.2536
  14.500   1.4631   0.05156   0.04475  -0.0380  0.0637  1.0000  -5.1393   0.0000   0.0000   0.0000   0.2533
  14.600   1.4637   0.05259   0.04582  -0.0378  0.0625  1.0000  -5.1698   0.0000   0.0000   0.0000   0.2529
  14.700   1.4637   0.05370   0.04694  -0.0377  0.0615  1.0000  -5.1984   0.0000   0.0000   0.0000   0.2526
  14.800   1.4625   0.05493   0.04814  -0.0375  0.0607  1.0000  -5.2229   0.0000   0.0000   0.0000   0.2522
  14.900   1.4633   0.05598   0.04925  -0.0373  0.0595  1.0000  -5.2518   0.0000   0.0000   0.0000   0.2519
  15.000   1.4639   0.05707   0.05038  -0.0372  0.0585  1.0000  -5.2812   0.0000   0.0000   0.0000   0.2516
  15.100   1.4641   0.05820   0.05154  -0.0371  0.0575  1.0000  -5.3126   0.0000   0.0000   0.0000   0.2513
  15.200   1.4637   0.05939   0.05273  -0.0370  0.0568  1.0000  -5.3426   0.0000   0.0000   0.0000   0.2510
  15.300   1.4626   0.06065   0.05397  -0.0369  0.0561  1.0000  -5.3693   0.0000   0.0000   0.0000   0.2507
  15.400   1.4631   0.06179   0.05517  -0.0368  0.0552  1.0000  -5.3996   0.0000   0.0000   0.0000   0.2505
  15.500   1.4635   0.06294   0.05637  -0.0367  0.0543  1.0000  -5.4302   0.0000   0.0000   0.0000   0.2502
  15.600   1.4636   0.06413   0.05758  -0.0367  0.0536  1.0000  -5.4603   0.0000   0.0000   0.0000   0.2500
  15.700   1.4634   0.06533   0.05879  -0.0367  0.0529  1.0000  -5.4904   0.0000   0.0000   0.0000   0.2497
  15.800   1.4631   0.06655   0.06001  -0.0366  0.0523  1.0000  -5.5197   0.0000   0.0000   0.0000   0.2495
  15.900   1.4625   0.06775   0.06119  -0.0365  0.0518  1.0000  -5.5480   0.0000   0.0000   0.0000   0.2492
  16.000   1.4628   0.06897   0.06249  -0.0366  0.0511  1.0000  -5.5762   0.0000   0.0000   0.0000   0.2490
  16.100   1.4630   0.07020   0.06377  -0.0366  0.0504  1.0000  -5.6047   0.0000   0.0000   0.0000   0.2488
  16.200   1.4631   0.07141   0.06502  -0.0366  0.0497  1.0000  -5.6341   0.0000   0.0000   0.0000   0.2486
  16.300   1.4632   0.07263   0.06625  -0.0367  0.0492  1.0000  -5.6639   0.0000   0.0000   0.0000   0.2484
  16.400   1.4634   0.07381   0.06744  -0.0367  0.0487  1.0000  -5.6949   0.0000   0.0000   0.0000   0.2482
  16.500   1.4636   0.07496   0.06857  -0.0367  0.0482  1.0000  -5.7268   0.0000   0.0000   0.0000   0.2479
  16.600   1.4640   0.07607   0.06969  -0.0366  0.0477  1.0000  -5.7582   0.0000   0.0000   0.0000   0.2476
  16.700   1.4638   0.07739   0.07109  -0.0367  0.0472  1.0000  -5.7830   0.0000   0.0000   0.0000   0.2475
  16.800   1.4638   0.07868   0.07243  -0.0368  0.0467  1.0000  -5.8096   0.0000   0.0000   0.0000   0.2474
  16.900   1.4640   0.07992   0.07372  -0.0370  0.0461  1.0000  -5.8380   0.0000   0.0000   0.0000   0.2472
  17.000   1.4643   0.08114   0.07496  -0.0371  0.0457  1.0000  -5.8679   0.0000   0.0000   0.0000   0.2470
  17.100   1.4648   0.08231   0.07614  -0.0372  0.0452  1.0000  -5.8997   0.0000   0.0000   0.0000   0.2469
  17.200   1.4658   0.08339   0.07721  -0.0372  0.0448  1.0000  -5.9345   0.0000   0.0000   0.0000   0.2467
  17.300   1.4674   0.08430   0.07809  -0.0371  0.0444  1.0000  -5.9739   0.0000   0.0000   0.0000   0.2463
  17.400   1.4681   0.08543   0.07924  -0.0371  0.0440  1.0000  -6.0046   0.0000   0.0000   0.0000   0.2461
  17.500   1.4672   0.08692   0.08082  -0.0375  0.0435  1.0000  -6.0277   0.0000   0.0000   0.0000   0.2461
  17.600   1.4666   0.08833   0.08229  -0.0377  0.0431  1.0000  -6.0577   0.0000   0.0000   0.0000   0.2461
  17.700   1.4665   0.08966   0.08367  -0.0380  0.0427  1.0000  -6.0907   0.0000   0.0000   0.0000   0.2460
  17.800   1.4667   0.09093   0.08497  -0.0382  0.0423  1.0000  -6.1264   0.0000   0.0000   0.0000   0.2459
  17.900   1.4674   0.09211   0.08617  -0.0384  0.0419  1.0000  -6.1653   0.0000   0.0000   0.0000   0.2458
  18.000   1.4688   0.09315   0.08721  -0.0385  0.0415  1.0000  -6.2090   0.0000   0.0000   0.0000   0.2456
  18.100   1.4711   0.09400   0.08804  -0.0385  0.0412  1.0000  -6.2591   0.0000   0.0000   0.0000   0.2453
  18.200   1.4755   0.09441   0.08839  -0.0381  0.0408  1.0000  -6.3229   0.0000   0.0000   0.0000   0.2448
  18.300   1.4745   0.09590   0.08995  -0.0385  0.0405  1.0000  -6.3490   0.0000   0.0000   0.0000   0.2448
  18.400   1.4731   0.09750   0.09164  -0.0390  0.0402  1.0000  -6.3778   0.0000   0.0000   0.0000   0.2449
  18.500   1.4723   0.09899   0.09319  -0.0394  0.0399  1.0000  -6.4128   0.0000   0.0000   0.0000   0.2450
  18.600   1.4720   0.10039   0.09464  -0.0398  0.0395  1.0000  -6.4511   0.0000   0.0000   0.0000   0.2450
  18.700   1.4720   0.10171   0.09601  -0.0401  0.0392  1.0000  -6.4927   0.0000   0.0000   0.0000   0.2450
  18.800   1.4725   0.10295   0.09729  -0.0404  0.0389  1.0000  -6.5375   0.0000   0.0000   0.0000   0.2449
  18.900   1.4734   0.10411   0.09847  -0.0407  0.0387  1.0000  -6.5861   0.0000   0.0000   0.0000   0.2448
  19.000   1.4751   0.10511   0.09950  -0.0409  0.0384  1.0000  -6.6411   0.0000   0.0000   0.0000   0.2447
  19.100   1.4778   0.10593   0.10031  -0.0409  0.0381  1.0000  -6.7036   0.0000   0.0000   0.0000   0.2444
  19.200   1.4821   0.10640   0.10075  -0.0408  0.0378  1.0000  -6.7796   0.0000   0.0000   0.0000   0.2440
  19.300   1.4894   0.10628   0.10056  -0.0401  0.0375  1.0000  -6.8775   0.0000   0.0000   0.0000   0.2432
  19.400   1.4866   0.10815   0.10253  -0.0409  0.0373  1.0000  -6.8959   0.0000   0.0000   0.0000   0.2435
  19.500   1.4843   0.10993   0.10440  -0.0416  0.0371  1.0000  -6.9177   0.0000   0.0000   0.0000   0.2438
  19.600   1.4825   0.11164   0.10618  -0.0423  0.0369  1.0000  -6.9428   0.0000   0.0000   0.0000   0.2441
  19.700   1.4811   0.11325   0.10787  -0.0430  0.0367  1.0000  -6.9713   0.0000   0.0000   0.0000   0.2443
  19.800   1.4802   0.11480   0.10947  -0.0436  0.0364  1.0000  -7.0032   0.0000   0.0000   0.0000   0.2445
  19.900   1.4794   0.11631   0.11104  -0.0443  0.0362  1.0000  -7.0365   0.0000   0.0000   0.0000   0.2447
  20.000   1.4790   0.11775   0.11253  -0.0449  0.0360  1.0000  -7.0731   0.0000   0.0000   0.0000   0.2448


