xflr5 v6.57

 Calculated polar for: QX0123

 1 1 Reynolds number fixed          Mach number fixed         

 xtrf =   1.000 (top)        1.000 (bottom)
 Mach =   0.000     Re =     0.680 e 6     Ncrit =   9.000

  alpha     CL        CD       CDp       Cm    Top Xtr Bot Xtr   Cpmin    Chinge    XCp    
 ------- -------- --------- --------- -------- ------- ------- -------- --------- ---------
 -10.000  -0.7036   0.02063   0.01555  -0.0821  0.8659  0.0225  -6.2598   0.0000   0.0000   0.0000   0.1201
  -9.900  -0.6936   0.02044   0.01532  -0.0820  0.8645  0.0229  -6.1621   0.0000   0.0000   0.0000   0.1186
  -9.800  -0.6835   0.02029   0.01513  -0.0820  0.8632  0.0232  -6.0633   0.0000   0.0000   0.0000   0.1171
  -9.700  -0.6730   0.02015   0.01496  -0.0820  0.8617  0.0234  -5.9623   0.0000   0.0000   0.0000   0.1152
  -9.600  -0.6623   0.02004   0.01482  -0.0820  0.8601  0.0237  -5.8605   0.0000   0.0000   0.0000   0.1133
  -9.500  -0.6516   0.01995   0.01470  -0.0820  0.8586  0.0239  -5.7588   0.0000   0.0000   0.0000   0.1113
  -9.400  -0.6408   0.01986   0.01459  -0.0820  0.8571  0.0240  -5.6578   0.0000   0.0000   0.0000   0.1093
  -9.300  -0.6302   0.01977   0.01446  -0.0819  0.8558  0.0241  -5.5584   0.0000   0.0000   0.0000   0.1072
  -9.200  -0.6239   0.01858   0.01313  -0.0817  0.8543  0.0247  -5.5193   0.0000   0.0000   0.0000   0.1063
  -9.100  -0.6159   0.01782   0.01228  -0.0815  0.8531  0.0252  -5.4561   0.0000   0.0000   0.0000   0.1049
  -9.000  -0.6066   0.01742   0.01182  -0.0814  0.8519  0.0256  -5.3735   0.0000   0.0000   0.0000   0.1031
  -8.900  -0.5964   0.01711   0.01150  -0.0814  0.8504  0.0259  -5.2837   0.0000   0.0000   0.0000   0.1009
  -8.800  -0.5860   0.01687   0.01123  -0.0814  0.8489  0.0262  -5.1912   0.0000   0.0000   0.0000   0.0985
  -8.700  -0.5756   0.01665   0.01100  -0.0814  0.8474  0.0265  -5.0981   0.0000   0.0000   0.0000   0.0960
  -8.600  -0.5650   0.01646   0.01078  -0.0814  0.8460  0.0267  -5.0050   0.0000   0.0000   0.0000   0.0934
  -8.500  -0.5545   0.01627   0.01056  -0.0813  0.8446  0.0270  -4.9126   0.0000   0.0000   0.0000   0.0908
  -8.400  -0.5439   0.01608   0.01034  -0.0813  0.8433  0.0272  -4.8210   0.0000   0.0000   0.0000   0.0880
  -8.300  -0.5334   0.01589   0.01013  -0.0812  0.8421  0.0275  -4.7304   0.0000   0.0000   0.0000   0.0852
  -8.200  -0.5229   0.01571   0.00991  -0.0812  0.8409  0.0277  -4.6407   0.0000   0.0000   0.0000   0.0823
  -8.100  -0.5122   0.01551   0.00969  -0.0811  0.8394  0.0279  -4.5511   0.0000   0.0000   0.0000   0.0790
  -8.000  -0.5014   0.01531   0.00947  -0.0811  0.8378  0.0282  -4.4705   0.0000   0.0000   0.0000   0.0756
  -7.900  -0.4907   0.01511   0.00924  -0.0811  0.8362  0.0284  -4.3965   0.0000   0.0000   0.0000   0.0721
  -7.800  -0.4800   0.01492   0.00902  -0.0811  0.8347  0.0286  -4.3233   0.0000   0.0000   0.0000   0.0685
  -7.700  -0.4693   0.01472   0.00879  -0.0811  0.8333  0.0288  -4.2506   0.0000   0.0000   0.0000   0.0647
  -7.600  -0.4586   0.01453   0.00857  -0.0810  0.8320  0.0291  -4.1785   0.0000   0.0000   0.0000   0.0608
  -7.500  -0.4479   0.01435   0.00835  -0.0809  0.8307  0.0293  -4.1069   0.0000   0.0000   0.0000   0.0566
  -7.400  -0.4372   0.01417   0.00813  -0.0809  0.8296  0.0295  -4.0358   0.0000   0.0000   0.0000   0.0523
  -7.300  -0.4263   0.01398   0.00793  -0.0809  0.8281  0.0297  -3.9644   0.0000   0.0000   0.0000   0.0476
  -7.200  -0.4153   0.01380   0.00772  -0.0809  0.8265  0.0300  -3.8933   0.0000   0.0000   0.0000   0.0425
  -7.100  -0.4044   0.01362   0.00752  -0.0809  0.8250  0.0302  -3.8227   0.0000   0.0000   0.0000   0.0372
  -7.000  -0.3935   0.01345   0.00733  -0.0808  0.8235  0.0304  -3.7524   0.0000   0.0000   0.0000   0.0316
  -6.900  -0.3825   0.01329   0.00714  -0.0808  0.8220  0.0307  -3.6823   0.0000   0.0000   0.0000   0.0257
  -6.800  -0.3716   0.01314   0.00695  -0.0808  0.8207  0.0309  -3.6124   0.0000   0.0000   0.0000   0.0195
  -6.700  -0.3606   0.01300   0.00678  -0.0807  0.8194  0.0311  -3.5427   0.0000   0.0000   0.0000   0.0129
  -6.600  -0.3496   0.01287   0.00662  -0.0807  0.8183  0.0313  -3.4731   0.0000   0.0000   0.0000   0.0059
  -6.500  -0.3384   0.01275   0.00648  -0.0807  0.8169  0.0315  -3.4030   0.0000   0.0000   0.0000  -0.0020
  -6.400  -0.3271   0.01263   0.00634  -0.0807  0.8153  0.0317  -3.3329   0.0000   0.0000   0.0000  -0.0104
  -6.300  -0.3168   0.01225   0.00594  -0.0807  0.8137  0.0325  -3.2780   0.0000   0.0000   0.0000  -0.0184
  -6.200  -0.3062   0.01197   0.00564  -0.0806  0.8122  0.0335  -3.2173   0.0000   0.0000   0.0000  -0.0273
  -6.100  -0.2951   0.01180   0.00548  -0.0806  0.8108  0.0345  -3.1496   0.0000   0.0000   0.0000  -0.0373
  -6.000  -0.2840   0.01169   0.00535  -0.0806  0.8095  0.0355  -3.0804   0.0000   0.0000   0.0000  -0.0483
  -5.900  -0.2728   0.01159   0.00524  -0.0806  0.8082  0.0365  -3.0116   0.0000   0.0000   0.0000  -0.0602
  -5.800  -0.2615   0.01150   0.00513  -0.0806  0.8070  0.0377  -2.9442   0.0000   0.0000   0.0000  -0.0730
  -5.700  -0.2501   0.01142   0.00503  -0.0806  0.8054  0.0387  -2.8769   0.0000   0.0000   0.0000  -0.0875
  -5.600  -0.2386   0.01135   0.00496  -0.0807  0.8037  0.0395  -2.8093   0.0000   0.0000   0.0000  -0.1036
  -5.500  -0.2279   0.01104   0.00466  -0.0807  0.8020  0.0422  -2.7530   0.0000   0.0000   0.0000  -0.1196
  -5.400  -0.2167   0.01093   0.00455  -0.0807  0.8004  0.0439  -2.6868   0.0000   0.0000   0.0000  -0.1385
  -5.300  -0.2053   0.01084   0.00445  -0.0807  0.7989  0.0454  -2.6206   0.0000   0.0000   0.0000  -0.1596
  -5.200  -0.1939   0.01077   0.00435  -0.0807  0.7975  0.0468  -2.5608   0.0000   0.0000   0.0000  -0.1833
  -5.100  -0.1827   0.01067   0.00423  -0.0807  0.7963  0.0482  -2.5109   0.0000   0.0000   0.0000  -0.2095
  -5.000  -0.1715   0.01054   0.00410  -0.0807  0.7950  0.0502  -2.4604   0.0000   0.0000   0.0000  -0.2389
  -4.900  -0.1600   0.01044   0.00402  -0.0807  0.7934  0.0519  -2.4075   0.0000   0.0000   0.0000  -0.2738
  -4.800  -0.1486   0.01037   0.00395  -0.0808  0.7917  0.0535  -2.3548   0.0000   0.0000   0.0000  -0.3140
  -4.700  -0.1370   0.01030   0.00387  -0.0808  0.7900  0.0549  -2.3023   0.0000   0.0000   0.0000  -0.3611
  -4.600  -0.1257   0.01020   0.00376  -0.0808  0.7884  0.0567  -2.2516   0.0000   0.0000   0.0000  -0.4158
  -4.500  -0.1144   0.01008   0.00365  -0.0809  0.7869  0.0589  -2.2003   0.0000   0.0000   0.0000  -0.4809
  -4.400  -0.1030   0.01000   0.00356  -0.0809  0.7856  0.0611  -2.1486   0.0000   0.0000   0.0000  -0.5610
  -4.300  -0.0916   0.00994   0.00348  -0.0809  0.7843  0.0633  -2.0972   0.0000   0.0000   0.0000  -0.6614
  -4.200  -0.0802   0.00983   0.00340  -0.0809  0.7826  0.0662  -2.0467   0.0000   0.0000   0.0000  -0.7907
  -4.100  -0.0687   0.00974   0.00333  -0.0810  0.7809  0.0694  -1.9955   0.0000   0.0000   0.0000  -0.9642
  -4.000  -0.0572   0.00966   0.00326  -0.0810  0.7791  0.0727  -1.9449   0.0000   0.0000   0.0000  -1.2077
  -3.900  -0.0458   0.00957   0.00319  -0.0811  0.7774  0.0768  -1.8943   0.0000   0.0000   0.0000  -1.5698
  -3.800  -0.0343   0.00950   0.00312  -0.0811  0.7758  0.0809  -1.8439   0.0000   0.0000   0.0000  -2.1767
  -3.700  -0.0229   0.00943   0.00305  -0.0811  0.7743  0.0856  -1.7938   0.0000   0.0000   0.0000  -3.3815
  -3.600  -0.0115   0.00937   0.00299  -0.0811  0.7729  0.0900  -1.7440   0.0000   0.0000   0.0000  -6.9885
  -3.500   0.0000   0.00929   0.00293  -0.0812  0.7709  0.0947  -1.6943   0.0000   0.0000   0.0000  3737.1195
  -3.400   0.0115   0.00921   0.00287  -0.0813  0.7689  0.0994  -1.6451   0.0000   0.0000   0.0000   7.4718
  -3.300   0.0230   0.00913   0.00281  -0.0813  0.7670  0.1045  -1.5961   0.0000   0.0000   0.0000   3.8642
  -3.200   0.0344   0.00905   0.00275  -0.0813  0.7652  0.1099  -1.5475   0.0000   0.0000   0.0000   2.6638
  -3.100   0.0459   0.00898   0.00270  -0.0814  0.7635  0.1156  -1.4991   0.0000   0.0000   0.0000   2.0604
  -3.000   0.0574   0.00893   0.00264  -0.0814  0.7620  0.1219  -1.4512   0.0000   0.0000   0.0000   1.6975
  -2.900   0.0689   0.00886   0.00260  -0.0815  0.7601  0.1285  -1.4035   0.0000   0.0000   0.0000   1.4550
  -2.800   0.0804   0.00879   0.00256  -0.0815  0.7580  0.1352  -1.3563   0.0000   0.0000   0.0000   1.2824
  -2.700   0.0919   0.00871   0.00251  -0.0816  0.7561  0.1427  -1.3095   0.0000   0.0000   0.0000   1.1532
  -2.600   0.1034   0.00863   0.00246  -0.0816  0.7542  0.1515  -1.2631   0.0000   0.0000   0.0000   1.0529
  -2.500   0.1148   0.00855   0.00242  -0.0817  0.7525  0.1618  -1.2172   0.0000   0.0000   0.0000   0.9727
  -2.400   0.1262   0.00848   0.00237  -0.0817  0.7510  0.1734  -1.1717   0.0000   0.0000   0.0000   0.9071
  -2.300   0.1377   0.00841   0.00234  -0.0818  0.7489  0.1854  -1.1265   0.0000   0.0000   0.0000   0.8522
  -2.200   0.1492   0.00833   0.00231  -0.0819  0.7466  0.1970  -1.0818   0.0000   0.0000   0.0000   0.8057
  -2.100   0.1607   0.00825   0.00227  -0.0819  0.7444  0.2082  -1.0375   0.0000   0.0000   0.0000   0.7660
  -2.000   0.1721   0.00818   0.00223  -0.0820  0.7423  0.2199  -0.9936   0.0000   0.0000   0.0000   0.7315
  -1.900   0.1836   0.00812   0.00219  -0.0820  0.7405  0.2320  -0.9503   0.0000   0.0000   0.0000   0.7013
  -1.800   0.1950   0.00805   0.00216  -0.0820  0.7384  0.2453  -0.9072   0.0000   0.0000   0.0000   0.6746
  -1.700   0.2066   0.00798   0.00213  -0.0821  0.7359  0.2583  -0.8646   0.0000   0.0000   0.0000   0.6510
  -1.600   0.2180   0.00790   0.00210  -0.0822  0.7336  0.2725  -0.8224   0.0000   0.0000   0.0000   0.6298
  -1.500   0.2295   0.00783   0.00207  -0.0822  0.7315  0.2885  -0.7808   0.0000   0.0000   0.0000   0.6108
  -1.400   0.2409   0.00775   0.00204  -0.0823  0.7297  0.3062  -0.7501   0.0000   0.0000   0.0000   0.5937
  -1.300   0.2523   0.00768   0.00202  -0.0823  0.7277  0.3258  -0.7210   0.0000   0.0000   0.0000   0.5781
  -1.200   0.2637   0.00759   0.00200  -0.0824  0.7252  0.3465  -0.6922   0.0000   0.0000   0.0000   0.5638
  -1.100   0.2751   0.00749   0.00198  -0.0825  0.7227  0.3694  -0.6636   0.0000   0.0000   0.0000   0.5508
  -1.000   0.2864   0.00739   0.00196  -0.0825  0.7204  0.3966  -0.6418   0.0000   0.0000   0.0000   0.5389
  -0.900   0.2975   0.00728   0.00193  -0.0826  0.7183  0.4280  -0.6497   0.0000   0.0000   0.0000   0.5278
  -0.800   0.3087   0.00716   0.00193  -0.0826  0.7157  0.4625  -0.6576   0.0000   0.0000   0.0000   0.5177
  -0.700   0.3199   0.00704   0.00192  -0.0826  0.7129  0.4990  -0.6655   0.0000   0.0000   0.0000   0.5082
  -0.600   0.3311   0.00693   0.00192  -0.0826  0.7104  0.5332  -0.6736   0.0000   0.0000   0.0000   0.4993
  -0.500   0.3422   0.00684   0.00191  -0.0826  0.7082  0.5661  -0.6825   0.0000   0.0000   0.0000   0.4909
  -0.400   0.3533   0.00676   0.00191  -0.0826  0.7059  0.5963  -0.6914   0.0000   0.0000   0.0000   0.4830
  -0.300   0.3644   0.00667   0.00192  -0.0826  0.7030  0.6274  -0.7004   0.0000   0.0000   0.0000   0.4756
  -0.200   0.3755   0.00659   0.00193  -0.0825  0.7000  0.6546  -0.7093   0.0000   0.0000   0.0000   0.4686
  -0.100   0.3865   0.00655   0.00193  -0.0824  0.6973  0.6790  -0.7196   0.0000   0.0000   0.0000   0.4619
   0.000   0.3977   0.00650   0.00194  -0.0824  0.6943  0.6994  -0.7301   0.0000   0.0000   0.0000   0.4556
   0.100   0.4088   0.00645   0.00195  -0.0823  0.6909  0.7182  -0.7406   0.0000   0.0000   0.0000   0.4496
   0.200   0.4198   0.00642   0.00195  -0.0822  0.6877  0.7360  -0.7511   0.0000   0.0000   0.0000   0.4439
   0.300   0.4308   0.00640   0.00195  -0.0821  0.6848  0.7524  -0.7616   0.0000   0.0000   0.0000   0.4385
   0.400   0.4420   0.00637   0.00196  -0.0820  0.6810  0.7668  -0.7722   0.0000   0.0000   0.0000   0.4334
   0.500   0.4530   0.00635   0.00197  -0.0819  0.6775  0.7805  -0.7827   0.0000   0.0000   0.0000   0.4285
   0.600   0.4638   0.00634   0.00197  -0.0817  0.6744  0.7940  -0.7932   0.0000   0.0000   0.0000   0.4238
   0.700   0.4748   0.00631   0.00198  -0.0816  0.6705  0.8075  -0.8038   0.0000   0.0000   0.0000   0.4193
   0.800   0.4857   0.00630   0.00199  -0.0815  0.6669  0.8209  -0.8143   0.0000   0.0000   0.0000   0.4150
   0.900   0.4963   0.00629   0.00200  -0.0813  0.6638  0.8336  -0.8247   0.0000   0.0000   0.0000   0.4109
   1.000   0.5072   0.00627   0.00202  -0.0811  0.6602  0.8464  -0.8352   0.0000   0.0000   0.0000   0.4070
   1.100   0.5177   0.00626   0.00203  -0.0809  0.6567  0.8590  -0.8462   0.0000   0.0000   0.0000   0.4031
   1.200   0.5279   0.00626   0.00204  -0.0806  0.6535  0.8727  -0.8572   0.0000   0.0000   0.0000   0.3994
   1.300   0.5382   0.00624   0.00206  -0.0803  0.6498  0.8866  -0.8681   0.0000   0.0000   0.0000   0.3958
   1.400   0.5482   0.00623   0.00207  -0.0799  0.6460  0.9002  -0.8789   0.0000   0.0000   0.0000   0.3922
   1.500   0.5579   0.00623   0.00208  -0.0794  0.6426  0.9144  -0.8897   0.0000   0.0000   0.0000   0.3888
   1.600   0.5680   0.00622   0.00209  -0.0790  0.6386  0.9291  -0.9006   0.0000   0.0000   0.0000   0.3855
   1.700   0.5786   0.00622   0.00210  -0.0788  0.6345  0.9437  -0.9140   0.0000   0.0000   0.0000   0.3824
   1.800   0.5909   0.00624   0.00210  -0.0789  0.6306  0.9573  -0.9287   0.0000   0.0000   0.0000   0.3796
   1.900   0.6050   0.00625   0.00211  -0.0795  0.6257  0.9694  -0.9447   0.0000   0.0000   0.0000   0.3774
   2.000   0.6200   0.00628   0.00210  -0.0803  0.6211  0.9793  -0.9619   0.0000   0.0000   0.0000   0.3753
   2.100   0.6356   0.00629   0.00211  -0.0812  0.6158  0.9880  -0.9796   0.0000   0.0000   0.0000   0.3736
   2.200   0.6515   0.00633   0.00212  -0.0822  0.6106  0.9963  -0.9977   0.0000   0.0000   0.0000   0.3719
   2.300   0.6648   0.00636   0.00213  -0.0827  0.6053  1.0000  -1.0145   0.0000   0.0000   0.0000   0.3700
   2.400   0.6756   0.00641   0.00214  -0.0827  0.6002  1.0000  -1.0293   0.0000   0.0000   0.0000   0.3678
   2.500   0.6865   0.00645   0.00216  -0.0826  0.5948  1.0000  -1.0443   0.0000   0.0000   0.0000   0.3657
   2.600   0.6973   0.00651   0.00218  -0.0826  0.5894  1.0000  -1.0593   0.0000   0.0000   0.0000   0.3636
   2.700   0.7083   0.00655   0.00221  -0.0825  0.5840  1.0000  -1.0744   0.0000   0.0000   0.0000   0.3617
   2.800   0.7191   0.00661   0.00223  -0.0825  0.5787  1.0000  -1.0895   0.0000   0.0000   0.0000   0.3597
   2.900   0.7302   0.00666   0.00226  -0.0825  0.5736  1.0000  -1.1053   0.0000   0.0000   0.0000   0.3579
   3.000   0.7411   0.00671   0.00229  -0.0824  0.5684  1.0000  -1.1217   0.0000   0.0000   0.0000   0.3560
   3.100   0.7520   0.00677   0.00232  -0.0824  0.5632  1.0000  -1.1382   0.0000   0.0000   0.0000   0.3543
   3.200   0.7630   0.00683   0.00235  -0.0824  0.5578  1.0000  -1.1546   0.0000   0.0000   0.0000   0.3526
   3.300   0.7739   0.00689   0.00239  -0.0823  0.5525  1.0000  -1.1711   0.0000   0.0000   0.0000   0.3509
   3.400   0.7848   0.00695   0.00244  -0.0823  0.5469  1.0000  -1.1888   0.0000   0.0000   0.0000   0.3493
   3.500   0.7957   0.00702   0.00248  -0.0823  0.5416  1.0000  -1.2074   0.0000   0.0000   0.0000   0.3477
   3.600   0.8065   0.00709   0.00252  -0.0822  0.5359  1.0000  -1.2259   0.0000   0.0000   0.0000   0.3461
   3.700   0.8174   0.00715   0.00256  -0.0822  0.5305  1.0000  -1.2446   0.0000   0.0000   0.0000   0.3446
   3.800   0.8282   0.00722   0.00261  -0.0822  0.5247  1.0000  -1.2632   0.0000   0.0000   0.0000   0.3431
   3.900   0.8391   0.00729   0.00265  -0.0821  0.5190  1.0000  -1.2820   0.0000   0.0000   0.0000   0.3417
   4.000   0.8498   0.00738   0.00270  -0.0821  0.5131  1.0000  -1.3006   0.0000   0.0000   0.0000   0.3403
   4.100   0.8607   0.00745   0.00275  -0.0820  0.5068  1.0000  -1.3195   0.0000   0.0000   0.0000   0.3389
   4.200   0.8712   0.00754   0.00281  -0.0820  0.5004  1.0000  -1.3410   0.0000   0.0000   0.0000   0.3376
   4.300   0.8820   0.00761   0.00286  -0.0819  0.4935  1.0000  -1.3629   0.0000   0.0000   0.0000   0.3363
   4.400   0.8927   0.00770   0.00291  -0.0819  0.4870  1.0000  -1.3847   0.0000   0.0000   0.0000   0.3350
   4.500   0.9032   0.00779   0.00297  -0.0818  0.4804  1.0000  -1.4066   0.0000   0.0000   0.0000   0.3337
   4.600   0.9140   0.00787   0.00303  -0.0817  0.4737  1.0000  -1.4286   0.0000   0.0000   0.0000   0.3325
   4.700   0.9244   0.00797   0.00310  -0.0817  0.4675  1.0000  -1.4526   0.0000   0.0000   0.0000   0.3313
   4.800   0.9351   0.00805   0.00316  -0.0816  0.4610  1.0000  -1.4772   0.0000   0.0000   0.0000   0.3301
   4.900   0.9456   0.00815   0.00322  -0.0815  0.4548  1.0000  -1.5017   0.0000   0.0000   0.0000   0.3289
   5.000   0.9562   0.00825   0.00329  -0.0815  0.4481  1.0000  -1.5264   0.0000   0.0000   0.0000   0.3278
   5.100   0.9667   0.00834   0.00336  -0.0814  0.4413  1.0000  -1.5511   0.0000   0.0000   0.0000   0.3267
   5.200   0.9770   0.00845   0.00346  -0.0813  0.4345  1.0000  -1.5757   0.0000   0.0000   0.0000   0.3255
   5.300   0.9874   0.00855   0.00354  -0.0812  0.4271  1.0000  -1.6015   0.0000   0.0000   0.0000   0.3245
   5.400   0.9978   0.00866   0.00361  -0.0811  0.4199  1.0000  -1.6281   0.0000   0.0000   0.0000   0.3234
   5.500   1.0080   0.00878   0.00370  -0.0810  0.4129  1.0000  -1.6546   0.0000   0.0000   0.0000   0.3223
   5.600   1.0183   0.00889   0.00378  -0.0809  0.4057  1.0000  -1.6813   0.0000   0.0000   0.0000   0.3213
   5.700   1.0286   0.00900   0.00386  -0.0808  0.3986  1.0000  -1.7081   0.0000   0.0000   0.0000   0.3203
   5.800   1.0386   0.00913   0.00395  -0.0806  0.3914  1.0000  -1.7361   0.0000   0.0000   0.0000   0.3193
   5.900   1.0487   0.00925   0.00404  -0.0805  0.3837  1.0000  -1.7677   0.0000   0.0000   0.0000   0.3183
   6.000   1.0588   0.00937   0.00413  -0.0804  0.3763  1.0000  -1.7995   0.0000   0.0000   0.0000   0.3173
   6.100   1.0687   0.00951   0.00423  -0.0803  0.3689  1.0000  -1.8311   0.0000   0.0000   0.0000   0.3164
   6.200   1.0787   0.00964   0.00433  -0.0801  0.3612  1.0000  -1.8628   0.0000   0.0000   0.0000   0.3154
   6.300   1.0887   0.00976   0.00443  -0.0800  0.3538  1.0000  -1.8950   0.0000   0.0000   0.0000   0.3145
   6.400   1.0986   0.00990   0.00453  -0.0798  0.3470  1.0000  -1.9269   0.0000   0.0000   0.0000   0.3136
   6.500   1.1083   0.01004   0.00464  -0.0797  0.3400  1.0000  -1.9676   0.0000   0.0000   0.0000   0.3126
   6.600   1.1183   0.01017   0.00474  -0.0795  0.3326  1.0000  -2.0098   0.0000   0.0000   0.0000   0.3118
   6.700   1.1279   0.01032   0.00486  -0.0793  0.3251  1.0000  -2.0516   0.0000   0.0000   0.0000   0.3109
   6.800   1.1372   0.01049   0.00498  -0.0791  0.3176  1.0000  -2.0930   0.0000   0.0000   0.0000   0.3100
   6.900   1.1470   0.01063   0.00509  -0.0790  0.3097  1.0000  -2.1356   0.0000   0.0000   0.0000   0.3091
   7.000   1.1565   0.01079   0.00521  -0.0788  0.3021  1.0000  -2.1780   0.0000   0.0000   0.0000   0.3082
   7.100   1.1658   0.01096   0.00534  -0.0785  0.2947  1.0000  -2.2203   0.0000   0.0000   0.0000   0.3074
   7.200   1.1751   0.01112   0.00550  -0.0783  0.2870  1.0000  -2.2690   0.0000   0.0000   0.0000   0.3065
   7.300   1.1845   0.01128   0.00563  -0.0781  0.2796  1.0000  -2.3183   0.0000   0.0000   0.0000   0.3057
   7.400   1.1936   0.01145   0.00576  -0.0779  0.2725  1.0000  -2.3674   0.0000   0.0000   0.0000   0.3048
   7.500   1.2025   0.01164   0.00591  -0.0776  0.2654  1.0000  -2.4161   0.0000   0.0000   0.0000   0.3040
   7.600   1.2118   0.01180   0.00605  -0.0774  0.2582  1.0000  -2.4660   0.0000   0.0000   0.0000   0.3032
   7.700   1.2208   0.01198   0.00619  -0.0771  0.2516  1.0000  -2.5157   0.0000   0.0000   0.0000   0.3023
   7.900   1.2387   0.01233   0.00648  -0.0766  0.2387  1.0000  -2.6157   0.0000   0.0000   0.0000   0.3007
   8.000   1.2474   0.01252   0.00664  -0.0763  0.2328  1.0000  -2.6657   0.0000   0.0000   0.0000   0.2999
   8.100   1.2561   0.01271   0.00679  -0.0760  0.2264  1.0000  -2.7158   0.0000   0.0000   0.0000   0.2991
   8.200   1.2648   0.01289   0.00695  -0.0757  0.2202  1.0000  -2.7663   0.0000   0.0000   0.0000   0.2983
   8.300   1.2731   0.01310   0.00712  -0.0753  0.2138  1.0000  -2.8158   0.0000   0.0000   0.0000   0.2975
   8.400   1.2815   0.01329   0.00729  -0.0750  0.2070  1.0000  -2.8664   0.0000   0.0000   0.0000   0.2967
   8.500   1.2899   0.01349   0.00745  -0.0747  0.2004  1.0000  -2.9168   0.0000   0.0000   0.0000   0.2959
   8.600   1.2978   0.01371   0.00763  -0.0743  0.1941  1.0000  -2.9665   0.0000   0.0000   0.0000   0.2951
   8.700   1.3059   0.01391   0.00781  -0.0739  0.1880  1.0000  -3.0169   0.0000   0.0000   0.0000   0.2943
   8.800   1.3140   0.01412   0.00799  -0.0735  0.1825  1.0000  -3.0674   0.0000   0.0000   0.0000   0.2935
   8.900   1.3216   0.01434   0.00818  -0.0731  0.1770  1.0000  -3.1171   0.0000   0.0000   0.0000   0.2927
   9.000   1.3296   0.01454   0.00836  -0.0727  0.1717  1.0000  -3.1680   0.0000   0.0000   0.0000   0.2920
   9.100   1.3369   0.01478   0.00857  -0.0722  0.1668  1.0000  -3.2170   0.0000   0.0000   0.0000   0.2912
   9.200   1.3443   0.01497   0.00877  -0.0717  0.1620  1.0000  -3.2671   0.0000   0.0000   0.0000   0.2904
   9.300   1.3506   0.01522   0.00899  -0.0711  0.1577  1.0000  -3.3140   0.0000   0.0000   0.0000   0.2895
   9.400   1.3577   0.01542   0.00918  -0.0705  0.1534  1.0000  -3.3635   0.0000   0.0000   0.0000   0.2886
   9.600   1.3712   0.01588   0.00962  -0.0694  0.1455  1.0000  -3.4609   0.0000   0.0000   0.0000   0.2870
   9.700   1.3776   0.01614   0.00985  -0.0688  0.1415  1.0000  -3.5089   0.0000   0.0000   0.0000   0.2862
   9.800   1.3844   0.01637   0.01008  -0.0683  0.1378  1.0000  -3.5585   0.0000   0.0000   0.0000   0.2854
   9.900   1.3909   0.01663   0.01032  -0.0677  0.1338  1.0000  -3.6071   0.0000   0.0000   0.0000   0.2846
  10.000   1.3973   0.01689   0.01057  -0.0672  0.1301  1.0000  -3.6560   0.0000   0.0000   0.0000   0.2839
  10.100   1.4038   0.01716   0.01083  -0.0667  0.1263  1.0000  -3.7050   0.0000   0.0000   0.0000   0.2831
  10.200   1.4099   0.01745   0.01110  -0.0661  0.1227  1.0000  -3.7532   0.0000   0.0000   0.0000   0.2823
  10.300   1.4163   0.01772   0.01137  -0.0656  0.1190  1.0000  -3.8025   0.0000   0.0000   0.0000   0.2816
  10.400   1.4220   0.01804   0.01167  -0.0651  0.1156  1.0000  -3.8499   0.0000   0.0000   0.0000   0.2809
  10.500   1.4284   0.01833   0.01195  -0.0646  0.1121  1.0000  -3.8994   0.0000   0.0000   0.0000   0.2801
  10.700   1.4402   0.01896   0.01257  -0.0635  0.1057  1.0000  -3.9959   0.0000   0.0000   0.0000   0.2787
  10.800   1.4457   0.01931   0.01290  -0.0630  0.1024  1.0000  -4.0433   0.0000   0.0000   0.0000   0.2780
  10.900   1.4515   0.01965   0.01323  -0.0624  0.0995  1.0000  -4.0916   0.0000   0.0000   0.0000   0.2773
  11.000   1.4570   0.02000   0.01358  -0.0619  0.0965  1.0000  -4.1393   0.0000   0.0000   0.0000   0.2766
  11.100   1.4622   0.02038   0.01394  -0.0614  0.0938  1.0000  -4.1860   0.0000   0.0000   0.0000   0.2759
  11.200   1.4680   0.02072   0.01430  -0.0609  0.0910  1.0000  -4.2349   0.0000   0.0000   0.0000   0.2752
  11.300   1.4727   0.02113   0.01470  -0.0603  0.0884  1.0000  -4.2806   0.0000   0.0000   0.0000   0.2745
  11.400   1.4786   0.02147   0.01505  -0.0598  0.0858  1.0000  -4.3299   0.0000   0.0000   0.0000   0.2739
  11.500   1.4836   0.02187   0.01544  -0.0593  0.0831  1.0000  -4.3769   0.0000   0.0000   0.0000   0.2732
  11.600   1.4886   0.02228   0.01584  -0.0588  0.0808  1.0000  -4.4237   0.0000   0.0000   0.0000   0.2725
  11.700   1.4938   0.02267   0.01624  -0.0583  0.0783  1.0000  -4.4713   0.0000   0.0000   0.0000   0.2719
  11.900   1.5035   0.02352   0.01708  -0.0573  0.0738  1.0000  -4.5643   0.0000   0.0000   0.0000   0.2706
  12.000   1.5079   0.02398   0.01753  -0.0567  0.0716  1.0000  -4.6099   0.0000   0.0000   0.0000   0.2699
  12.100   1.5124   0.02443   0.01799  -0.0562  0.0696  1.0000  -4.6591   0.0000   0.0000   0.0000   0.2693
  12.200   1.5172   0.02487   0.01843  -0.0557  0.0675  1.0000  -4.7095   0.0000   0.0000   0.0000   0.2687
  12.300   1.5209   0.02539   0.01894  -0.0552  0.0656  1.0000  -4.7562   0.0000   0.0000   0.0000   0.2680
  12.400   1.5257   0.02583   0.01939  -0.0547  0.0636  1.0000  -4.8068   0.0000   0.0000   0.0000   0.2674
  12.500   1.5298   0.02632   0.01989  -0.0542  0.0617  1.0000  -4.8550   0.0000   0.0000   0.0000   0.2668
  12.600   1.5335   0.02686   0.02043  -0.0537  0.0600  1.0000  -4.9018   0.0000   0.0000   0.0000   0.2662
  12.700   1.5378   0.02735   0.02093  -0.0532  0.0582  1.0000  -4.9508   0.0000   0.0000   0.0000   0.2656
  12.800   1.5411   0.02791   0.02149  -0.0526  0.0566  1.0000  -4.9965   0.0000   0.0000   0.0000   0.2650
  12.900   1.5447   0.02846   0.02205  -0.0521  0.0551  1.0000  -5.0434   0.0000   0.0000   0.0000   0.2644
  13.000   1.5485   0.02900   0.02259  -0.0516  0.0536  1.0000  -5.0908   0.0000   0.0000   0.0000   0.2638
  13.100   1.5512   0.02962   0.02323  -0.0511  0.0522  1.0000  -5.1346   0.0000   0.0000   0.0000   0.2632
  13.200   1.5549   0.03018   0.02381  -0.0506  0.0508  1.0000  -5.1814   0.0000   0.0000   0.0000   0.2626
  13.300   1.5583   0.03076   0.02440  -0.0502  0.0494  1.0000  -5.2276   0.0000   0.0000   0.0000   0.2620
  13.400   1.5607   0.03142   0.02506  -0.0496  0.0482  1.0000  -5.2705   0.0000   0.0000   0.0000   0.2615
  13.500   1.5638   0.03204   0.02569  -0.0492  0.0471  1.0000  -5.3154   0.0000   0.0000   0.0000   0.2609
  13.600   1.5669   0.03266   0.02633  -0.0487  0.0459  1.0000  -5.3606   0.0000   0.0000   0.0000   0.2603
  13.700   1.5692   0.03335   0.02703  -0.0482  0.0449  1.0000  -5.4028   0.0000   0.0000   0.0000   0.2598
  13.800   1.5709   0.03409   0.02778  -0.0477  0.0440  1.0000  -5.4429   0.0000   0.0000   0.0000   0.2592
  13.900   1.5741   0.03471   0.02843  -0.0473  0.0430  1.0000  -5.4883   0.0000   0.0000   0.0000   0.2587
  14.000   1.5765   0.03541   0.02915  -0.0469  0.0420  1.0000  -5.5306   0.0000   0.0000   0.0000   0.2582
  14.100   1.5781   0.03619   0.02993  -0.0464  0.0412  1.0000  -5.5703   0.0000   0.0000   0.0000   0.2576
  14.200   1.5793   0.03700   0.03076  -0.0460  0.0405  1.0000  -5.6082   0.0000   0.0000   0.0000   0.2571
  14.300   1.5820   0.03769   0.03147  -0.0456  0.0397  1.0000  -5.6517   0.0000   0.0000   0.0000   0.2566
  14.400   1.5839   0.03845   0.03226  -0.0452  0.0389  1.0000  -5.6935   0.0000   0.0000   0.0000   0.2561
  14.500   1.5853   0.03928   0.03310  -0.0448  0.0383  1.0000  -5.7353   0.0000   0.0000   0.0000   0.2556
  14.600   1.5856   0.04021   0.03405  -0.0444  0.0377  1.0000  -5.7730   0.0000   0.0000   0.0000   0.2551
  14.700   1.5869   0.04107   0.03493  -0.0440  0.0371  1.0000  -5.8141   0.0000   0.0000   0.0000   0.2547
  14.800   1.5889   0.04187   0.03576  -0.0437  0.0365  1.0000  -5.8582   0.0000   0.0000   0.0000   0.2542
  14.900   1.5903   0.04273   0.03665  -0.0434  0.0359  1.0000  -5.9004   0.0000   0.0000   0.0000   0.2538
  15.000   1.5911   0.04368   0.03761  -0.0431  0.0354  1.0000  -5.9400   0.0000   0.0000   0.0000   0.2534
  15.100   1.5911   0.04471   0.03866  -0.0428  0.0350  1.0000  -5.9762   0.0000   0.0000   0.0000   0.2529
  15.200   1.5900   0.04588   0.03985  -0.0424  0.0346  1.0000  -6.0068   0.0000   0.0000   0.0000   0.2526
  15.300   1.5918   0.04675   0.04077  -0.0422  0.0341  1.0000  -6.0501   0.0000   0.0000   0.0000   0.2522
  15.400   1.5933   0.04767   0.04172  -0.0420  0.0336  1.0000  -6.0921   0.0000   0.0000   0.0000   0.2518
  15.500   1.5943   0.04865   0.04273  -0.0418  0.0331  1.0000  -6.1321   0.0000   0.0000   0.0000   0.2514
  15.600   1.5949   0.04970   0.04380  -0.0416  0.0327  1.0000  -6.1702   0.0000   0.0000   0.0000   0.2511
  15.700   1.5946   0.05084   0.04497  -0.0415  0.0323  1.0000  -6.2049   0.0000   0.0000   0.0000   0.2507
  15.800   1.5935   0.05209   0.04624  -0.0413  0.0320  1.0000  -6.2357   0.0000   0.0000   0.0000   0.2504
  16.000   1.5924   0.05451   0.04872  -0.0411  0.0314  1.0000  -6.3000   0.0000   0.0000   0.0000   0.2498
  16.100   1.5930   0.05560   0.04986  -0.0410  0.0310  1.0000  -6.3519   0.0000   0.0000   0.0000   0.2496
  16.200   1.5930   0.05677   0.05106  -0.0410  0.0307  1.0000  -6.4026   0.0000   0.0000   0.0000   0.2493
  16.300   1.5929   0.05798   0.05230  -0.0409  0.0304  1.0000  -6.4521   0.0000   0.0000   0.0000   0.2490
  16.400   1.5924   0.05923   0.05358  -0.0409  0.0301  1.0000  -6.4996   0.0000   0.0000   0.0000   0.2488
  16.500   1.5914   0.06056   0.05494  -0.0409  0.0298  1.0000  -6.5439   0.0000   0.0000   0.0000   0.2486
  16.600   1.5898   0.06197   0.05638  -0.0410  0.0296  1.0000  -6.5847   0.0000   0.0000   0.0000   0.2484
  16.700   1.5875   0.06349   0.05792  -0.0410  0.0294  1.0000  -6.6209   0.0000   0.0000   0.0000   0.2482
  16.800   1.5844   0.06512   0.05958  -0.0411  0.0292  1.0000  -6.6519   0.0000   0.0000   0.0000   0.2481
  16.900   1.5814   0.06675   0.06125  -0.0413  0.0290  1.0000  -6.6831   0.0000   0.0000   0.0000   0.2480
  17.000   1.5812   0.06804   0.06258  -0.0414  0.0288  1.0000  -6.7317   0.0000   0.0000   0.0000   0.2478
  17.100   1.5804   0.06941   0.06399  -0.0415  0.0285  1.0000  -6.7764   0.0000   0.0000   0.0000   0.2477
  17.200   1.5793   0.07083   0.06546  -0.0416  0.0283  1.0000  -6.8191   0.0000   0.0000   0.0000   0.2476
  17.300   1.5778   0.07232   0.06699  -0.0418  0.0281  1.0000  -6.8592   0.0000   0.0000   0.0000   0.2475
  17.400   1.5761   0.07384   0.06854  -0.0420  0.0279  1.0000  -6.8982   0.0000   0.0000   0.0000   0.2474
  17.500   1.5742   0.07540   0.07014  -0.0423  0.0277  1.0000  -6.9357   0.0000   0.0000   0.0000   0.2473
  17.600   1.5720   0.07701   0.07178  -0.0425  0.0275  1.0000  -6.9712   0.0000   0.0000   0.0000   0.2473
  17.700   1.5697   0.07865   0.07346  -0.0428  0.0273  1.0000  -7.0053   0.0000   0.0000   0.0000   0.2472
  17.800   1.5669   0.08035   0.07519  -0.0431  0.0272  1.0000  -7.0368   0.0000   0.0000   0.0000   0.2472
  17.900   1.5637   0.08212   0.07700  -0.0435  0.0271  1.0000  -7.0651   0.0000   0.0000   0.0000   0.2473
  18.000   1.5602   0.08395   0.07887  -0.0439  0.0269  1.0000  -7.0907   0.0000   0.0000   0.0000   0.2473
  18.100   1.5562   0.08587   0.08081  -0.0443  0.0268  1.0000  -7.1126   0.0000   0.0000   0.0000   0.2474
  18.200   1.5516   0.08786   0.08283  -0.0448  0.0267  1.0000  -7.1303   0.0000   0.0000   0.0000   0.2476
  18.300   1.5481   0.08973   0.08474  -0.0452  0.0265  1.0000  -7.1544   0.0000   0.0000   0.0000   0.2477
  18.400   1.5462   0.09137   0.08642  -0.0456  0.0264  1.0000  -7.1895   0.0000   0.0000   0.0000   0.2477
  18.500   1.5441   0.09305   0.08815  -0.0460  0.0262  1.0000  -7.2226   0.0000   0.0000   0.0000   0.2478
  18.600   1.5418   0.09476   0.08991  -0.0465  0.0261  1.0000  -7.2545   0.0000   0.0000   0.0000   0.2479
  18.700   1.5393   0.09652   0.09171  -0.0470  0.0259  1.0000  -7.2846   0.0000   0.0000   0.0000   0.2480
  18.800   1.5369   0.09827   0.09350  -0.0475  0.0257  1.0000  -7.3150   0.0000   0.0000   0.0000   0.2481
  18.900   1.5342   0.10006   0.09533  -0.0480  0.0256  1.0000  -7.3435   0.0000   0.0000   0.0000   0.2483
  19.000   1.5316   0.10185   0.09715  -0.0486  0.0254  1.0000  -7.3720   0.0000   0.0000   0.0000   0.2485
  19.100   1.5289   0.10366   0.09899  -0.0492  0.0253  1.0000  -7.3995   0.0000   0.0000   0.0000   0.2486
  19.200   1.5262   0.10548   0.10085  -0.0498  0.0251  1.0000  -7.4267   0.0000   0.0000   0.0000   0.2489
  19.300   1.5235   0.10730   0.10270  -0.0504  0.0250  1.0000  -7.4536   0.0000   0.0000   0.0000   0.2491
  19.400   1.5206   0.10916   0.10459  -0.0511  0.0249  1.0000  -7.4789   0.0000   0.0000   0.0000   0.2493
  19.500   1.5178   0.11100   0.10646  -0.0518  0.0248  1.0000  -7.5045   0.0000   0.0000   0.0000   0.2496
  19.600   1.5147   0.11291   0.10838  -0.0525  0.0246  1.0000  -7.5269   0.0000   0.0000   0.0000   0.2499
  19.700   1.5116   0.11479   0.11029  -0.0532  0.0245  1.0000  -7.5490   0.0000   0.0000   0.0000   0.2502
  19.800   1.5083   0.11671   0.11222  -0.0540  0.0244  1.0000  -7.5687   0.0000   0.0000   0.0000   0.2505
  19.900   1.5052   0.11857   0.11410  -0.0547  0.0243  1.0000  -7.5896   0.0000   0.0000   0.0000   0.2508
  20.000   1.5034   0.12031   0.11589  -0.0555  0.0242  1.0000  -7.6196   0.0000   0.0000   0.0000   0.2511


