xflr5 v6.57

 Calculated polar for: QX0123

 1 1 Reynolds number fixed          Mach number fixed         

 xtrf =   1.000 (top)        1.000 (bottom)
 Mach =   0.000     Re =     0.780 e 6     Ncrit =   9.000

  alpha     CL        CD       CDp       Cm    Top Xtr Bot Xtr   Cpmin    Chinge    XCp    
 ------- -------- --------- --------- -------- ------- ------- -------- --------- ---------
 -10.000  -0.7134   0.01884   0.01375  -0.0810  0.8571  0.0217  -6.3798   0.0000   0.0000   0.0000   0.1234
  -9.900  -0.7031   0.01868   0.01355  -0.0810  0.8557  0.0220  -6.2779   0.0000   0.0000   0.0000   0.1218
  -9.800  -0.6927   0.01853   0.01336  -0.0809  0.8543  0.0224  -6.1759   0.0000   0.0000   0.0000   0.1202
  -9.700  -0.6822   0.01839   0.01319  -0.0809  0.8531  0.0227  -6.0739   0.0000   0.0000   0.0000   0.1185
  -9.600  -0.6717   0.01827   0.01303  -0.0808  0.8519  0.0230  -5.9721   0.0000   0.0000   0.0000   0.1168
  -9.500  -0.6609   0.01814   0.01288  -0.0809  0.8506  0.0233  -5.8695   0.0000   0.0000   0.0000   0.1148
  -9.400  -0.6501   0.01802   0.01273  -0.0809  0.8492  0.0235  -5.7677   0.0000   0.0000   0.0000   0.1128
  -9.300  -0.6394   0.01789   0.01258  -0.0809  0.8477  0.0237  -5.6673   0.0000   0.0000   0.0000   0.1108
  -9.200  -0.6287   0.01774   0.01241  -0.0809  0.8463  0.0238  -5.5686   0.0000   0.0000   0.0000   0.1087
  -9.100  -0.6180   0.01761   0.01224  -0.0809  0.8449  0.0240  -5.4702   0.0000   0.0000   0.0000   0.1065
  -9.000  -0.6072   0.01749   0.01209  -0.0808  0.8436  0.0241  -5.3720   0.0000   0.0000   0.0000   0.1043
  -8.900  -0.5965   0.01737   0.01194  -0.0808  0.8424  0.0241  -5.2741   0.0000   0.0000   0.0000   0.1020
  -8.800  -0.5876   0.01679   0.01128  -0.0807  0.8412  0.0244  -5.2022   0.0000   0.0000   0.0000   0.1002
  -8.700  -0.5792   0.01609   0.01049  -0.0805  0.8399  0.0249  -5.1366   0.0000   0.0000   0.0000   0.0985
  -8.600  -0.5695   0.01563   0.00999  -0.0804  0.8385  0.0252  -5.0566   0.0000   0.0000   0.0000   0.0962
  -8.500  -0.5594   0.01529   0.00962  -0.0804  0.8370  0.0255  -4.9713   0.0000   0.0000   0.0000   0.0938
  -8.400  -0.5491   0.01501   0.00931  -0.0804  0.8355  0.0258  -4.8832   0.0000   0.0000   0.0000   0.0912
  -8.300  -0.5387   0.01478   0.00905  -0.0803  0.8341  0.0260  -4.7937   0.0000   0.0000   0.0000   0.0884
  -8.200  -0.5281   0.01456   0.00881  -0.0803  0.8327  0.0263  -4.7036   0.0000   0.0000   0.0000   0.0855
  -8.100  -0.5175   0.01437   0.00859  -0.0802  0.8314  0.0265  -4.6151   0.0000   0.0000   0.0000   0.0825
  -8.000  -0.5068   0.01420   0.00839  -0.0802  0.8302  0.0267  -4.5387   0.0000   0.0000   0.0000   0.0793
  -7.900  -0.4961   0.01403   0.00820  -0.0802  0.8289  0.0269  -4.4622   0.0000   0.0000   0.0000   0.0760
  -7.800  -0.4851   0.01386   0.00801  -0.0802  0.8274  0.0271  -4.3856   0.0000   0.0000   0.0000   0.0723
  -7.700  -0.4742   0.01369   0.00782  -0.0802  0.8259  0.0274  -4.3095   0.0000   0.0000   0.0000   0.0684
  -7.600  -0.4632   0.01352   0.00764  -0.0802  0.8244  0.0276  -4.2341   0.0000   0.0000   0.0000   0.0644
  -7.500  -0.4523   0.01336   0.00745  -0.0802  0.8230  0.0278  -4.1593   0.0000   0.0000   0.0000   0.0602
  -7.400  -0.4414   0.01320   0.00727  -0.0801  0.8216  0.0280  -4.0851   0.0000   0.0000   0.0000   0.0559
  -7.300  -0.4305   0.01304   0.00709  -0.0801  0.8203  0.0282  -4.0116   0.0000   0.0000   0.0000   0.0513
  -7.200  -0.4196   0.01289   0.00691  -0.0801  0.8191  0.0285  -3.9386   0.0000   0.0000   0.0000   0.0465
  -7.100  -0.4086   0.01275   0.00673  -0.0800  0.8179  0.0287  -3.8662   0.0000   0.0000   0.0000   0.0414
  -7.000  -0.3975   0.01259   0.00656  -0.0801  0.8164  0.0290  -3.7937   0.0000   0.0000   0.0000   0.0358
  -6.900  -0.3864   0.01244   0.00639  -0.0801  0.8149  0.0293  -3.7218   0.0000   0.0000   0.0000   0.0299
  -6.800  -0.3753   0.01229   0.00623  -0.0801  0.8134  0.0295  -3.6504   0.0000   0.0000   0.0000   0.0236
  -6.700  -0.3641   0.01215   0.00607  -0.0801  0.8119  0.0298  -3.5795   0.0000   0.0000   0.0000   0.0170
  -6.600  -0.3530   0.01202   0.00591  -0.0801  0.8106  0.0302  -3.5090   0.0000   0.0000   0.0000   0.0100
  -6.500  -0.3418   0.01189   0.00575  -0.0801  0.8093  0.0305  -3.4389   0.0000   0.0000   0.0000   0.0025
  -6.400  -0.3307   0.01177   0.00561  -0.0800  0.8081  0.0308  -3.3690   0.0000   0.0000   0.0000  -0.0055
  -6.300  -0.3195   0.01167   0.00548  -0.0800  0.8069  0.0311  -3.2992   0.0000   0.0000   0.0000  -0.0141
  -6.200  -0.3081   0.01157   0.00536  -0.0801  0.8055  0.0314  -3.2289   0.0000   0.0000   0.0000  -0.0236
  -6.100  -0.2967   0.01148   0.00526  -0.0801  0.8040  0.0316  -3.1585   0.0000   0.0000   0.0000  -0.0339
  -6.000  -0.2861   0.01116   0.00492  -0.0801  0.8024  0.0331  -3.1018   0.0000   0.0000   0.0000  -0.0440
  -5.900  -0.2750   0.01098   0.00474  -0.0801  0.8008  0.0346  -3.0359   0.0000   0.0000   0.0000  -0.0555
  -5.800  -0.2638   0.01087   0.00464  -0.0801  0.7993  0.0358  -2.9669   0.0000   0.0000   0.0000  -0.0683
  -5.700  -0.2524   0.01078   0.00454  -0.0801  0.7979  0.0371  -2.8983   0.0000   0.0000   0.0000  -0.0822
  -5.600  -0.2411   0.01070   0.00444  -0.0801  0.7966  0.0384  -2.8307   0.0000   0.0000   0.0000  -0.0975
  -5.500  -0.2297   0.01066   0.00436  -0.0801  0.7953  0.0393  -2.7630   0.0000   0.0000   0.0000  -0.1144
  -5.400  -0.2186   0.01044   0.00415  -0.0801  0.7937  0.0417  -2.7025   0.0000   0.0000   0.0000  -0.1325
  -5.300  -0.2072   0.01031   0.00405  -0.0802  0.7921  0.0435  -2.6362   0.0000   0.0000   0.0000  -0.1533
  -5.200  -0.1958   0.01023   0.00396  -0.0802  0.7905  0.0450  -2.5773   0.0000   0.0000   0.0000  -0.1766
  -5.100  -0.1843   0.01016   0.00388  -0.0802  0.7890  0.0463  -2.5242   0.0000   0.0000   0.0000  -0.2029
  -5.000  -0.1728   0.01011   0.00381  -0.0803  0.7875  0.0473  -2.4707   0.0000   0.0000   0.0000  -0.2328
  -4.900  -0.1616   0.00997   0.00367  -0.0803  0.7861  0.0493  -2.4204   0.0000   0.0000   0.0000  -0.2659
  -4.800  -0.1502   0.00988   0.00358  -0.0803  0.7849  0.0511  -2.3675   0.0000   0.0000   0.0000  -0.3044
  -4.700  -0.1388   0.00981   0.00351  -0.0803  0.7835  0.0527  -2.3144   0.0000   0.0000   0.0000  -0.3497
  -4.600  -0.1272   0.00974   0.00344  -0.0804  0.7818  0.0543  -2.2613   0.0000   0.0000   0.0000  -0.4042
  -4.500  -0.1156   0.00969   0.00337  -0.0804  0.7800  0.0555  -2.2083   0.0000   0.0000   0.0000  -0.4696
  -4.400  -0.1042   0.00956   0.00326  -0.0805  0.7784  0.0581  -2.1576   0.0000   0.0000   0.0000  -0.5475
  -4.300  -0.0928   0.00947   0.00319  -0.0805  0.7768  0.0605  -2.1056   0.0000   0.0000   0.0000  -0.6453
  -4.200  -0.0813   0.00940   0.00311  -0.0805  0.7754  0.0628  -2.0538   0.0000   0.0000   0.0000  -0.7713
  -4.100  -0.0699   0.00932   0.00303  -0.0806  0.7740  0.0657  -2.0029   0.0000   0.0000   0.0000  -0.9372
  -4.000  -0.0585   0.00925   0.00296  -0.0806  0.7726  0.0691  -1.9518   0.0000   0.0000   0.0000  -1.1675
  -3.900  -0.0469   0.00917   0.00290  -0.0806  0.7707  0.0725  -1.9008   0.0000   0.0000   0.0000  -1.5176
  -3.800  -0.0354   0.00908   0.00284  -0.0807  0.7688  0.0769  -1.8500   0.0000   0.0000   0.0000  -2.0906
  -3.700  -0.0239   0.00901   0.00278  -0.0808  0.7670  0.0811  -1.7994   0.0000   0.0000   0.0000  -3.2202
  -3.600  -0.0124   0.00894   0.00273  -0.0808  0.7652  0.0859  -1.7491   0.0000   0.0000   0.0000  -6.4320
  -3.500  -0.0009   0.00888   0.00266  -0.0808  0.7636  0.0902  -1.6993   0.0000   0.0000   0.0000  -91.3618
  -3.400   0.0105   0.00882   0.00260  -0.0809  0.7621  0.0948  -1.6497   0.0000   0.0000   0.0000   8.0980
  -3.300   0.0221   0.00875   0.00255  -0.0809  0.7602  0.0993  -1.6005   0.0000   0.0000   0.0000   3.9970
  -3.200   0.0337   0.00868   0.00250  -0.0810  0.7582  0.1042  -1.5514   0.0000   0.0000   0.0000   2.7088
  -3.100   0.0452   0.00860   0.00245  -0.0810  0.7562  0.1094  -1.5029   0.0000   0.0000   0.0000   2.0816
  -3.000   0.0567   0.00854   0.00240  -0.0811  0.7543  0.1149  -1.4546   0.0000   0.0000   0.0000   1.7088
  -2.900   0.0682   0.00848   0.00236  -0.0811  0.7527  0.1213  -1.4067   0.0000   0.0000   0.0000   1.4617
  -2.800   0.0797   0.00843   0.00231  -0.0812  0.7512  0.1277  -1.3594   0.0000   0.0000   0.0000   1.2868
  -2.700   0.0913   0.00836   0.00227  -0.0812  0.7494  0.1338  -1.3123   0.0000   0.0000   0.0000   1.1555
  -2.600   0.1029   0.00829   0.00223  -0.0813  0.7473  0.1408  -1.2657   0.0000   0.0000   0.0000   1.0536
  -2.500   0.1144   0.00822   0.00219  -0.0814  0.7452  0.1492  -1.2195   0.0000   0.0000   0.0000   0.9726
  -2.400   0.1259   0.00814   0.00215  -0.0814  0.7432  0.1593  -1.1738   0.0000   0.0000   0.0000   0.9066
  -2.300   0.1373   0.00807   0.00210  -0.0815  0.7413  0.1710  -1.1286   0.0000   0.0000   0.0000   0.8517
  -2.100   0.1603   0.00793   0.00204  -0.0816  0.7371  0.1951  -1.0393   0.0000   0.0000   0.0000   0.7653
  -2.000   0.1718   0.00786   0.00201  -0.0817  0.7347  0.2063  -0.9952   0.0000   0.0000   0.0000   0.7307
  -1.900   0.1833   0.00779   0.00197  -0.0817  0.7325  0.2177  -0.9516   0.0000   0.0000   0.0000   0.7005
  -1.800   0.1948   0.00773   0.00194  -0.0818  0.7305  0.2295  -0.9085   0.0000   0.0000   0.0000   0.6738
  -1.700   0.2063   0.00768   0.00191  -0.0818  0.7288  0.2422  -0.8659   0.0000   0.0000   0.0000   0.6501
  -1.600   0.2179   0.00761   0.00189  -0.0819  0.7265  0.2549  -0.8234   0.0000   0.0000   0.0000   0.6289
  -1.500   0.2294   0.00754   0.00187  -0.0820  0.7241  0.2688  -0.7816   0.0000   0.0000   0.0000   0.6099
  -1.400   0.2409   0.00747   0.00184  -0.0821  0.7219  0.2839  -0.7507   0.0000   0.0000   0.0000   0.5927
  -1.300   0.2523   0.00740   0.00182  -0.0821  0.7198  0.3003  -0.7216   0.0000   0.0000   0.0000   0.5771
  -1.200   0.2637   0.00734   0.00179  -0.0822  0.7178  0.3183  -0.6928   0.0000   0.0000   0.0000   0.5628
  -1.000   0.2867   0.00717   0.00176  -0.0823  0.7124  0.3589  -0.6424   0.0000   0.0000   0.0000   0.5378
  -0.900   0.2980   0.00708   0.00174  -0.0824  0.7099  0.3843  -0.6503   0.0000   0.0000   0.0000   0.5268
  -0.800   0.3093   0.00698   0.00172  -0.0824  0.7078  0.4140  -0.6583   0.0000   0.0000   0.0000   0.5166
  -0.700   0.3205   0.00687   0.00171  -0.0825  0.7054  0.4479  -0.6662   0.0000   0.0000   0.0000   0.5072
  -0.600   0.3318   0.00674   0.00171  -0.0825  0.7027  0.4835  -0.6743   0.0000   0.0000   0.0000   0.4984
  -0.500   0.3430   0.00664   0.00171  -0.0826  0.7000  0.5192  -0.6832   0.0000   0.0000   0.0000   0.4902
  -0.400   0.3542   0.00655   0.00170  -0.0826  0.6975  0.5513  -0.6922   0.0000   0.0000   0.0000   0.4824
  -0.300   0.3654   0.00647   0.00170  -0.0826  0.6947  0.5816  -0.7012   0.0000   0.0000   0.0000   0.4750
  -0.200   0.3766   0.00638   0.00171  -0.0826  0.6914  0.6111  -0.7101   0.0000   0.0000   0.0000   0.4681
  -0.100   0.3877   0.00632   0.00171  -0.0825  0.6883  0.6388  -0.7206   0.0000   0.0000   0.0000   0.4615
   0.000   0.3987   0.00627   0.00172  -0.0825  0.6855  0.6636  -0.7310   0.0000   0.0000   0.0000   0.4553
   0.100   0.4100   0.00622   0.00173  -0.0824  0.6819  0.6865  -0.7416   0.0000   0.0000   0.0000   0.4494
   0.200   0.4212   0.00618   0.00174  -0.0824  0.6784  0.7056  -0.7522   0.0000   0.0000   0.0000   0.4438
   0.300   0.4323   0.00615   0.00174  -0.0823  0.6752  0.7228  -0.7627   0.0000   0.0000   0.0000   0.4384
   0.400   0.4435   0.00612   0.00175  -0.0823  0.6716  0.7392  -0.7734   0.0000   0.0000   0.0000   0.4333
   0.500   0.4547   0.00610   0.00176  -0.0822  0.6679  0.7543  -0.7840   0.0000   0.0000   0.0000   0.4285
   0.600   0.4657   0.00609   0.00177  -0.0821  0.6645  0.7676  -0.7946   0.0000   0.0000   0.0000   0.4239
   0.700   0.4768   0.00607   0.00178  -0.0820  0.6610  0.7809  -0.8052   0.0000   0.0000   0.0000   0.4195
   0.800   0.4879   0.00605   0.00180  -0.0820  0.6574  0.7947  -0.8159   0.0000   0.0000   0.0000   0.4153
   0.900   0.4989   0.00605   0.00181  -0.0818  0.6542  0.8080  -0.8264   0.0000   0.0000   0.0000   0.4112
   1.000   0.5099   0.00604   0.00182  -0.0817  0.6509  0.8209  -0.8371   0.0000   0.0000   0.0000   0.4073
   1.100   0.5207   0.00602   0.00184  -0.0816  0.6471  0.8331  -0.8483   0.0000   0.0000   0.0000   0.4036
   1.200   0.5315   0.00602   0.00185  -0.0814  0.6436  0.8459  -0.8596   0.0000   0.0000   0.0000   0.4000
   1.300   0.5420   0.00601   0.00187  -0.0812  0.6400  0.8589  -0.8707   0.0000   0.0000   0.0000   0.3965
   1.400   0.5525   0.00600   0.00189  -0.0810  0.6359  0.8724  -0.8818   0.0000   0.0000   0.0000   0.3931
   1.500   0.5627   0.00600   0.00190  -0.0807  0.6321  0.8859  -0.8928   0.0000   0.0000   0.0000   0.3898
   1.600   0.5728   0.00599   0.00192  -0.0803  0.6280  0.8994  -0.9040   0.0000   0.0000   0.0000   0.3865
   1.700   0.5826   0.00599   0.00194  -0.0799  0.6236  0.9137  -0.9169   0.0000   0.0000   0.0000   0.3833
   1.800   0.5923   0.00600   0.00195  -0.0795  0.6194  0.9285  -0.9298   0.0000   0.0000   0.0000   0.3802
   1.900   0.6028   0.00600   0.00196  -0.0792  0.6144  0.9431  -0.9432   0.0000   0.0000   0.0000   0.3773
   2.000   0.6145   0.00602   0.00197  -0.0792  0.6097  0.9567  -0.9581   0.0000   0.0000   0.0000   0.3747
   2.100   0.6282   0.00603   0.00198  -0.0797  0.6044  0.9688  -0.9744   0.0000   0.0000   0.0000   0.3726
   2.300   0.6581   0.00610   0.00200  -0.0813  0.5935  0.9879  -1.0098   0.0000   0.0000   0.0000   0.3691
   2.400   0.6738   0.00615   0.00201  -0.0823  0.5879  0.9967  -1.0283   0.0000   0.0000   0.0000   0.3676
   2.500   0.6866   0.00619   0.00203  -0.0827  0.5819  1.0000  -1.0448   0.0000   0.0000   0.0000   0.3657
   2.600   0.6974   0.00625   0.00205  -0.0826  0.5767  1.0000  -1.0597   0.0000   0.0000   0.0000   0.3637
   2.700   0.7085   0.00629   0.00208  -0.0826  0.5713  1.0000  -1.0749   0.0000   0.0000   0.0000   0.3617
   2.800   0.7193   0.00635   0.00210  -0.0826  0.5663  1.0000  -1.0900   0.0000   0.0000   0.0000   0.3598
   2.900   0.7305   0.00639   0.00213  -0.0826  0.5610  1.0000  -1.1060   0.0000   0.0000   0.0000   0.3579
   3.100   0.7524   0.00651   0.00219  -0.0825  0.5504  1.0000  -1.1389   0.0000   0.0000   0.0000   0.3544
   3.300   0.7743   0.00663   0.00226  -0.0825  0.5395  1.0000  -1.1719   0.0000   0.0000   0.0000   0.3510
   3.500   0.7962   0.00676   0.00235  -0.0824  0.5285  1.0000  -1.2083   0.0000   0.0000   0.0000   0.3478
   3.700   0.8180   0.00690   0.00244  -0.0824  0.5173  1.0000  -1.2456   0.0000   0.0000   0.0000   0.3447
   3.800   0.8287   0.00698   0.00248  -0.0823  0.5117  1.0000  -1.2641   0.0000   0.0000   0.0000   0.3433
   3.900   0.8397   0.00704   0.00253  -0.0823  0.5054  1.0000  -1.2830   0.0000   0.0000   0.0000   0.3418
   4.000   0.8504   0.00712   0.00258  -0.0822  0.4992  1.0000  -1.3017   0.0000   0.0000   0.0000   0.3404
   4.100   0.8612   0.00720   0.00263  -0.0822  0.4923  1.0000  -1.3205   0.0000   0.0000   0.0000   0.3391
   4.200   0.8720   0.00728   0.00268  -0.0822  0.4856  1.0000  -1.3423   0.0000   0.0000   0.0000   0.3377
   4.300   0.8826   0.00738   0.00273  -0.0821  0.4791  1.0000  -1.3640   0.0000   0.0000   0.0000   0.3364
   4.400   0.8934   0.00745   0.00279  -0.0821  0.4724  1.0000  -1.3860   0.0000   0.0000   0.0000   0.3351
   4.500   0.9041   0.00754   0.00284  -0.0820  0.4662  1.0000  -1.4079   0.0000   0.0000   0.0000   0.3339
   4.600   0.9148   0.00763   0.00290  -0.0820  0.4598  1.0000  -1.4300   0.0000   0.0000   0.0000   0.3326
   4.700   0.9255   0.00771   0.00296  -0.0819  0.4537  1.0000  -1.4544   0.0000   0.0000   0.0000   0.3314
   4.900   0.9467   0.00790   0.00309  -0.0818  0.4404  1.0000  -1.5036   0.0000   0.0000   0.0000   0.3291
   5.000   0.9572   0.00800   0.00316  -0.0817  0.4338  1.0000  -1.5282   0.0000   0.0000   0.0000   0.3280
   5.100   0.9677   0.00810   0.00323  -0.0816  0.4265  1.0000  -1.5530   0.0000   0.0000   0.0000   0.3268
   5.200   0.9782   0.00820   0.00332  -0.0816  0.4193  1.0000  -1.5778   0.0000   0.0000   0.0000   0.3257
   5.300   0.9886   0.00831   0.00340  -0.0815  0.4123  1.0000  -1.6037   0.0000   0.0000   0.0000   0.3247
   5.400   0.9990   0.00842   0.00348  -0.0814  0.4051  1.0000  -1.6303   0.0000   0.0000   0.0000   0.3236
   5.500   1.0094   0.00852   0.00355  -0.0813  0.3981  1.0000  -1.6571   0.0000   0.0000   0.0000   0.3226
   5.600   1.0196   0.00864   0.00364  -0.0812  0.3911  1.0000  -1.6838   0.0000   0.0000   0.0000   0.3215
   5.700   1.0298   0.00876   0.00372  -0.0811  0.3835  1.0000  -1.7106   0.0000   0.0000   0.0000   0.3205
   5.800   1.0401   0.00887   0.00380  -0.0810  0.3761  1.0000  -1.7395   0.0000   0.0000   0.0000   0.3195
   5.900   1.0502   0.00900   0.00390  -0.0809  0.3687  1.0000  -1.7711   0.0000   0.0000   0.0000   0.3185
   6.000   1.0603   0.00913   0.00399  -0.0808  0.3610  1.0000  -1.8028   0.0000   0.0000   0.0000   0.3176
   6.100   1.0705   0.00925   0.00408  -0.0807  0.3536  1.0000  -1.8349   0.0000   0.0000   0.0000   0.3166
   6.200   1.0805   0.00938   0.00417  -0.0805  0.3466  1.0000  -1.8668   0.0000   0.0000   0.0000   0.3157
   6.300   1.0904   0.00951   0.00427  -0.0804  0.3399  1.0000  -1.8988   0.0000   0.0000   0.0000   0.3147
   6.400   1.1006   0.00963   0.00437  -0.0803  0.3328  1.0000  -1.9324   0.0000   0.0000   0.0000   0.3138
   6.500   1.1104   0.00977   0.00447  -0.0801  0.3254  1.0000  -1.9741   0.0000   0.0000   0.0000   0.3129
   6.700   1.1299   0.01006   0.00469  -0.0798  0.3101  1.0000  -2.0581   0.0000   0.0000   0.0000   0.3111
   6.800   1.1396   0.01021   0.00480  -0.0796  0.3025  1.0000  -2.1004   0.0000   0.0000   0.0000   0.3103
   6.900   1.1491   0.01037   0.00492  -0.0794  0.2950  1.0000  -2.1425   0.0000   0.0000   0.0000   0.3094
   7.000   1.1587   0.01053   0.00504  -0.0792  0.2873  1.0000  -2.1851   0.0000   0.0000   0.0000   0.3085
   7.100   1.1683   0.01068   0.00516  -0.0791  0.2799  1.0000  -2.2299   0.0000   0.0000   0.0000   0.3077
   7.200   1.1777   0.01084   0.00531  -0.0789  0.2729  1.0000  -2.2790   0.0000   0.0000   0.0000   0.3068
   7.400   1.1963   0.01117   0.00557  -0.0784  0.2586  1.0000  -2.3779   0.0000   0.0000   0.0000   0.3051
   7.500   1.2056   0.01134   0.00570  -0.0782  0.2520  1.0000  -2.4276   0.0000   0.0000   0.0000   0.3043
   7.700   1.2240   0.01167   0.00598  -0.0777  0.2387  1.0000  -2.5278   0.0000   0.0000   0.0000   0.3027
   7.800   1.2330   0.01185   0.00612  -0.0775  0.2326  1.0000  -2.5780   0.0000   0.0000   0.0000   0.3019
   7.900   1.2420   0.01202   0.00626  -0.0772  0.2264  1.0000  -2.6284   0.0000   0.0000   0.0000   0.3011
   8.000   1.2510   0.01219   0.00641  -0.0770  0.2202  1.0000  -2.6792   0.0000   0.0000   0.0000   0.3003
   8.100   1.2596   0.01239   0.00657  -0.0767  0.2138  1.0000  -2.7292   0.0000   0.0000   0.0000   0.2995
   8.200   1.2684   0.01257   0.00672  -0.0764  0.2069  1.0000  -2.7801   0.0000   0.0000   0.0000   0.2987
   8.300   1.2771   0.01276   0.00687  -0.0761  0.2001  1.0000  -2.8309   0.0000   0.0000   0.0000   0.2979
   8.400   1.2854   0.01297   0.00704  -0.0757  0.1936  1.0000  -2.8811   0.0000   0.0000   0.0000   0.2971
   8.500   1.2938   0.01317   0.00721  -0.0754  0.1873  1.0000  -2.9318   0.0000   0.0000   0.0000   0.2963
   8.600   1.3023   0.01335   0.00737  -0.0751  0.1818  1.0000  -2.9831   0.0000   0.0000   0.0000   0.2955
   8.700   1.3102   0.01357   0.00755  -0.0747  0.1763  1.0000  -3.0333   0.0000   0.0000   0.0000   0.2948
   8.800   1.3188   0.01375   0.00771  -0.0744  0.1710  1.0000  -3.0852   0.0000   0.0000   0.0000   0.2940
   8.900   1.3266   0.01397   0.00790  -0.0740  0.1661  1.0000  -3.1356   0.0000   0.0000   0.0000   0.2932
   9.000   1.3348   0.01416   0.00807  -0.0736  0.1613  1.0000  -3.1873   0.0000   0.0000   0.0000   0.2924
   9.100   1.3425   0.01438   0.00826  -0.0732  0.1569  1.0000  -3.2377   0.0000   0.0000   0.0000   0.2917
   9.200   1.3505   0.01457   0.00846  -0.0728  0.1525  1.0000  -3.2893   0.0000   0.0000   0.0000   0.2909
   9.300   1.3575   0.01480   0.00866  -0.0722  0.1486  1.0000  -3.3383   0.0000   0.0000   0.0000   0.2901
   9.400   1.3649   0.01497   0.00884  -0.0717  0.1446  1.0000  -3.3890   0.0000   0.0000   0.0000   0.2892
   9.600   1.3787   0.01540   0.00924  -0.0706  0.1369  1.0000  -3.4878   0.0000   0.0000   0.0000   0.2876
   9.700   1.3852   0.01564   0.00946  -0.0700  0.1330  1.0000  -3.5365   0.0000   0.0000   0.0000   0.2868
   9.800   1.3921   0.01587   0.00967  -0.0695  0.1293  1.0000  -3.5866   0.0000   0.0000   0.0000   0.2860
   9.900   1.3987   0.01612   0.00990  -0.0689  0.1254  1.0000  -3.6357   0.0000   0.0000   0.0000   0.2852
  10.000   1.4053   0.01636   0.01014  -0.0684  0.1219  1.0000  -3.6852   0.0000   0.0000   0.0000   0.2844
  10.100   1.4117   0.01662   0.01038  -0.0678  0.1181  1.0000  -3.7345   0.0000   0.0000   0.0000   0.2837
  10.200   1.4180   0.01690   0.01065  -0.0673  0.1148  1.0000  -3.7833   0.0000   0.0000   0.0000   0.2829
  10.300   1.4244   0.01716   0.01090  -0.0668  0.1113  1.0000  -3.8329   0.0000   0.0000   0.0000   0.2822
  10.400   1.4302   0.01747   0.01119  -0.0662  0.1081  1.0000  -3.8808   0.0000   0.0000   0.0000   0.2814
  10.500   1.4368   0.01774   0.01146  -0.0657  0.1048  1.0000  -3.9311   0.0000   0.0000   0.0000   0.2807
  10.700   1.4487   0.01835   0.01205  -0.0646  0.0986  1.0000  -4.0286   0.0000   0.0000   0.0000   0.2792
  10.800   1.4543   0.01869   0.01237  -0.0641  0.0957  1.0000  -4.0765   0.0000   0.0000   0.0000   0.2785
  10.900   1.4602   0.01901   0.01269  -0.0636  0.0929  1.0000  -4.1254   0.0000   0.0000   0.0000   0.2778
  11.000   1.4660   0.01934   0.01301  -0.0630  0.0901  1.0000  -4.1743   0.0000   0.0000   0.0000   0.2771
  11.100   1.4713   0.01970   0.01338  -0.0625  0.0876  1.0000  -4.2217   0.0000   0.0000   0.0000   0.2764
  11.200   1.4774   0.02002   0.01369  -0.0620  0.0849  1.0000  -4.2719   0.0000   0.0000   0.0000   0.2757
  11.300   1.4825   0.02040   0.01406  -0.0615  0.0823  1.0000  -4.3192   0.0000   0.0000   0.0000   0.2750
  11.400   1.4883   0.02074   0.01440  -0.0610  0.0799  1.0000  -4.3685   0.0000   0.0000   0.0000   0.2744
  11.500   1.4935   0.02112   0.01478  -0.0605  0.0774  1.0000  -4.4163   0.0000   0.0000   0.0000   0.2737
  11.600   1.4986   0.02151   0.01517  -0.0599  0.0753  1.0000  -4.4638   0.0000   0.0000   0.0000   0.2730
  11.700   1.5041   0.02188   0.01554  -0.0595  0.0730  1.0000  -4.5126   0.0000   0.0000   0.0000   0.2724
  11.800   1.5087   0.02232   0.01596  -0.0589  0.0709  1.0000  -4.5585   0.0000   0.0000   0.0000   0.2717
  11.900   1.5141   0.02269   0.01634  -0.0584  0.0688  1.0000  -4.6075   0.0000   0.0000   0.0000   0.2711
  12.000   1.5190   0.02311   0.01676  -0.0579  0.0667  1.0000  -4.6558   0.0000   0.0000   0.0000   0.2705
  12.100   1.5235   0.02356   0.01721  -0.0574  0.0648  1.0000  -4.7054   0.0000   0.0000   0.0000   0.2698
  12.200   1.5286   0.02397   0.01762  -0.0569  0.0628  1.0000  -4.7573   0.0000   0.0000   0.0000   0.2692
  12.300   1.5327   0.02445   0.01810  -0.0564  0.0609  1.0000  -4.8057   0.0000   0.0000   0.0000   0.2685
  12.400   1.5374   0.02489   0.01854  -0.0559  0.0592  1.0000  -4.8566   0.0000   0.0000   0.0000   0.2679
  12.500   1.5417   0.02536   0.01902  -0.0554  0.0574  1.0000  -4.9060   0.0000   0.0000   0.0000   0.2673
  12.600   1.5453   0.02589   0.01955  -0.0548  0.0558  1.0000  -4.9529   0.0000   0.0000   0.0000   0.2667
  12.700   1.5501   0.02634   0.02001  -0.0543  0.0542  1.0000  -5.0041   0.0000   0.0000   0.0000   0.2661
  12.800   1.5538   0.02687   0.02054  -0.0538  0.0526  1.0000  -5.0515   0.0000   0.0000   0.0000   0.2655
  12.900   1.5575   0.02740   0.02108  -0.0533  0.0512  1.0000  -5.0991   0.0000   0.0000   0.0000   0.2649
  13.000   1.5617   0.02790   0.02159  -0.0528  0.0497  1.0000  -5.1487   0.0000   0.0000   0.0000   0.2643
  13.100   1.5650   0.02847   0.02217  -0.0523  0.0484  1.0000  -5.1948   0.0000   0.0000   0.0000   0.2637
  13.200   1.5685   0.02902   0.02273  -0.0518  0.0472  1.0000  -5.2421   0.0000   0.0000   0.0000   0.2631
  13.300   1.5723   0.02957   0.02329  -0.0513  0.0459  1.0000  -5.2900   0.0000   0.0000   0.0000   0.2625
  13.400   1.5751   0.03018   0.02391  -0.0508  0.0448  1.0000  -5.3350   0.0000   0.0000   0.0000   0.2619
  13.500   1.5781   0.03080   0.02454  -0.0503  0.0437  1.0000  -5.3799   0.0000   0.0000   0.0000   0.2613
  13.600   1.5817   0.03137   0.02512  -0.0499  0.0426  1.0000  -5.4274   0.0000   0.0000   0.0000   0.2608
  13.700   1.5845   0.03201   0.02577  -0.0494  0.0416  1.0000  -5.4721   0.0000   0.0000   0.0000   0.2602
  13.900   1.5897   0.03332   0.02712  -0.0484  0.0399  1.0000  -5.5599   0.0000   0.0000   0.0000   0.2591
  14.000   1.5925   0.03397   0.02778  -0.0480  0.0390  1.0000  -5.6046   0.0000   0.0000   0.0000   0.2586
  14.100   1.5947   0.03468   0.02850  -0.0475  0.0383  1.0000  -5.6471   0.0000   0.0000   0.0000   0.2580
  14.200   1.5959   0.03548   0.02931  -0.0470  0.0376  1.0000  -5.6858   0.0000   0.0000   0.0000   0.2575
  14.300   1.5986   0.03615   0.03001  -0.0466  0.0369  1.0000  -5.7305   0.0000   0.0000   0.0000   0.2570
  14.400   1.6010   0.03686   0.03075  -0.0462  0.0362  1.0000  -5.7771   0.0000   0.0000   0.0000   0.2565
  14.500   1.6028   0.03763   0.03152  -0.0458  0.0356  1.0000  -5.8217   0.0000   0.0000   0.0000   0.2560
  14.600   1.6038   0.03847   0.03238  -0.0454  0.0350  1.0000  -5.8629   0.0000   0.0000   0.0000   0.2555
  14.700   1.6038   0.03943   0.03335  -0.0449  0.0346  1.0000  -5.8996   0.0000   0.0000   0.0000   0.2550
  14.800   1.6066   0.04013   0.03409  -0.0446  0.0340  1.0000  -5.9475   0.0000   0.0000   0.0000   0.2545
  14.900   1.6088   0.04090   0.03489  -0.0443  0.0334  1.0000  -5.9937   0.0000   0.0000   0.0000   0.2541
  15.000   1.6104   0.04174   0.03575  -0.0439  0.0329  1.0000  -6.0373   0.0000   0.0000   0.0000   0.2536
  15.100   1.6114   0.04264   0.03668  -0.0436  0.0324  1.0000  -6.0786   0.0000   0.0000   0.0000   0.2532
  15.200   1.6117   0.04364   0.03770  -0.0433  0.0320  1.0000  -6.1164   0.0000   0.0000   0.0000   0.2527
  15.300   1.6111   0.04473   0.03881  -0.0430  0.0317  1.0000  -6.1505   0.0000   0.0000   0.0000   0.2523
  15.400   1.6133   0.04556   0.03967  -0.0428  0.0312  1.0000  -6.1963   0.0000   0.0000   0.0000   0.2519
  15.500   1.6149   0.04645   0.04060  -0.0425  0.0308  1.0000  -6.2394   0.0000   0.0000   0.0000   0.2515
  15.600   1.6162   0.04739   0.04156  -0.0423  0.0304  1.0000  -6.2814   0.0000   0.0000   0.0000   0.2512
  15.700   1.6168   0.04841   0.04260  -0.0421  0.0301  1.0000  -6.3298   0.0000   0.0000   0.0000   0.2508
  15.800   1.6170   0.04948   0.04370  -0.0419  0.0298  1.0000  -6.3827   0.0000   0.0000   0.0000   0.2505
  15.900   1.6165   0.05065   0.04490  -0.0418  0.0295  1.0000  -6.4314   0.0000   0.0000   0.0000   0.2501
  16.000   1.6152   0.05192   0.04618  -0.0416  0.0292  1.0000  -6.4752   0.0000   0.0000   0.0000   0.2498
  16.100   1.6142   0.05317   0.04746  -0.0415  0.0290  1.0000  -6.5207   0.0000   0.0000   0.0000   0.2495
  16.200   1.6154   0.05418   0.04852  -0.0414  0.0287  1.0000  -6.5789   0.0000   0.0000   0.0000   0.2492
  16.300   1.6160   0.05527   0.04964  -0.0413  0.0284  1.0000  -6.6343   0.0000   0.0000   0.0000   0.2489
  16.400   1.6162   0.05641   0.05082  -0.0412  0.0281  1.0000  -6.6873   0.0000   0.0000   0.0000   0.2486
  16.500   1.6162   0.05759   0.05203  -0.0412  0.0278  1.0000  -6.7391   0.0000   0.0000   0.0000   0.2484
  16.600   1.6159   0.05883   0.05330  -0.0412  0.0276  1.0000  -6.7886   0.0000   0.0000   0.0000   0.2481
  16.700   1.6151   0.06012   0.05463  -0.0412  0.0274  1.0000  -6.8356   0.0000   0.0000   0.0000   0.2479
  16.800   1.6137   0.06150   0.05603  -0.0412  0.0272  1.0000  -6.8791   0.0000   0.0000   0.0000   0.2477
  16.900   1.6118   0.06296   0.05752  -0.0413  0.0270  1.0000  -6.9186   0.0000   0.0000   0.0000   0.2475
  17.000   1.6092   0.06452   0.05911  -0.0413  0.0268  1.0000  -6.9540   0.0000   0.0000   0.0000   0.2474
  17.100   1.6058   0.06620   0.06081  -0.0415  0.0266  1.0000  -6.9839   0.0000   0.0000   0.0000   0.2473
  17.200   1.6045   0.06763   0.06228  -0.0416  0.0265  1.0000  -7.0266   0.0000   0.0000   0.0000   0.2471
  17.300   1.6037   0.06898   0.06368  -0.0417  0.0263  1.0000  -7.0730   0.0000   0.0000   0.0000   0.2470
  17.400   1.6026   0.07040   0.06514  -0.0419  0.0261  1.0000  -7.1168   0.0000   0.0000   0.0000   0.2468
  17.500   1.6011   0.07188   0.06666  -0.0420  0.0259  1.0000  -7.1583   0.0000   0.0000   0.0000   0.2467
  17.600   1.5995   0.07338   0.06820  -0.0422  0.0257  1.0000  -7.1990   0.0000   0.0000   0.0000   0.2466
  17.700   1.5976   0.07493   0.06980  -0.0425  0.0255  1.0000  -7.2377   0.0000   0.0000   0.0000   0.2466
  17.800   1.5956   0.07651   0.07141  -0.0427  0.0254  1.0000  -7.2756   0.0000   0.0000   0.0000   0.2465
  17.900   1.5934   0.07812   0.07305  -0.0430  0.0252  1.0000  -7.3123   0.0000   0.0000   0.0000   0.2465
  18.000   1.5908   0.07978   0.07476  -0.0433  0.0250  1.0000  -7.3462   0.0000   0.0000   0.0000   0.2464
  18.100   1.5880   0.08151   0.07651  -0.0436  0.0249  1.0000  -7.3778   0.0000   0.0000   0.0000   0.2465
  18.200   1.5846   0.08331   0.07834  -0.0440  0.0248  1.0000  -7.4061   0.0000   0.0000   0.0000   0.2465
  18.300   1.5808   0.08520   0.08027  -0.0444  0.0246  1.0000  -7.4301   0.0000   0.0000   0.0000   0.2466
  18.400   1.5765   0.08716   0.08226  -0.0449  0.0245  1.0000  -7.4508   0.0000   0.0000   0.0000   0.2467
  18.500   1.5716   0.08920   0.08433  -0.0454  0.0244  1.0000  -7.4669   0.0000   0.0000   0.0000   0.2469
  18.700   1.5645   0.09297   0.08818  -0.0464  0.0242  1.0000  -7.5154   0.0000   0.0000   0.0000   0.2471
  18.800   1.5625   0.09464   0.08990  -0.0468  0.0240  1.0000  -7.5507   0.0000   0.0000   0.0000   0.2472
  18.900   1.5600   0.09639   0.09169  -0.0473  0.0239  1.0000  -7.5820   0.0000   0.0000   0.0000   0.2473
  19.000   1.5575   0.09815   0.09349  -0.0478  0.0237  1.0000  -7.6125   0.0000   0.0000   0.0000   0.2474
  19.100   1.5547   0.09998   0.09536  -0.0484  0.0236  1.0000  -7.6407   0.0000   0.0000   0.0000   0.2476
  19.200   1.5517   0.10180   0.09723  -0.0489  0.0234  1.0000  -7.6677   0.0000   0.0000   0.0000   0.2477
  19.300   1.5487   0.10366   0.09912  -0.0495  0.0233  1.0000  -7.6940   0.0000   0.0000   0.0000   0.2479
  19.400   1.5456   0.10555   0.10105  -0.0502  0.0232  1.0000  -7.7183   0.0000   0.0000   0.0000   0.2482
  19.500   1.5425   0.10743   0.10296  -0.0508  0.0231  1.0000  -7.7433   0.0000   0.0000   0.0000   0.2484
  19.600   1.5393   0.10935   0.10491  -0.0515  0.0230  1.0000  -7.7662   0.0000   0.0000   0.0000   0.2487
  19.700   1.5362   0.11124   0.10684  -0.0522  0.0229  1.0000  -7.7896   0.0000   0.0000   0.0000   0.2489
  19.800   1.5330   0.11317   0.10881  -0.0530  0.0228  1.0000  -7.8121   0.0000   0.0000   0.0000   0.2492
  19.900   1.5298   0.11510   0.11076  -0.0537  0.0227  1.0000  -7.8335   0.0000   0.0000   0.0000   0.2495
  20.000   1.5266   0.11703   0.11273  -0.0545  0.0226  1.0000  -7.8547   0.0000   0.0000   0.0000   0.2499


