xflr5 v6.57

 Calculated polar for: QX0123

 1 1 Reynolds number fixed          Mach number fixed         

 xtrf =   1.000 (top)        1.000 (bottom)
 Mach =   0.000     Re =     0.800 e 6     Ncrit =   9.000

  alpha     CL        CD       CDp       Cm    Top Xtr Bot Xtr   Cpmin    Chinge    XCp    
 ------- -------- --------- --------- -------- ------- ------- -------- --------- ---------
 -10.000  -0.7151   0.01855   0.01344  -0.0808  0.8556  0.0215  -6.4002   0.0000   0.0000   0.0000   0.1239
  -9.900  -0.7047   0.01839   0.01325  -0.0808  0.8542  0.0219  -6.2976   0.0000   0.0000   0.0000   0.1224
  -9.800  -0.6943   0.01825   0.01307  -0.0807  0.8530  0.0222  -6.1950   0.0000   0.0000   0.0000   0.1208
  -9.700  -0.6839   0.01812   0.01291  -0.0807  0.8518  0.0226  -6.0927   0.0000   0.0000   0.0000   0.1191
  -9.600  -0.6731   0.01798   0.01275  -0.0807  0.8504  0.0229  -5.9895   0.0000   0.0000   0.0000   0.1172
  -9.500  -0.6623   0.01785   0.01260  -0.0807  0.8490  0.0231  -5.8867   0.0000   0.0000   0.0000   0.1153
  -9.400  -0.6515   0.01772   0.01245  -0.0807  0.8476  0.0234  -5.7849   0.0000   0.0000   0.0000   0.1133
  -9.300  -0.6408   0.01759   0.01229  -0.0807  0.8462  0.0236  -5.6845   0.0000   0.0000   0.0000   0.1113
  -9.200  -0.6302   0.01745   0.01211  -0.0807  0.8448  0.0237  -5.5857   0.0000   0.0000   0.0000   0.1093
  -9.100  -0.6195   0.01731   0.01194  -0.0807  0.8435  0.0239  -5.4874   0.0000   0.0000   0.0000   0.1071
  -9.000  -0.6088   0.01718   0.01178  -0.0806  0.8423  0.0240  -5.3893   0.0000   0.0000   0.0000   0.1049
  -8.900  -0.5981   0.01706   0.01163  -0.0806  0.8412  0.0241  -5.2916   0.0000   0.0000   0.0000   0.1027
  -8.800  -0.5872   0.01695   0.01149  -0.0806  0.8399  0.0242  -5.1940   0.0000   0.0000   0.0000   0.1002
  -8.700  -0.5783   0.01631   0.01078  -0.0805  0.8385  0.0245  -5.1236   0.0000   0.0000   0.0000   0.0983
  -8.600  -0.5694   0.01568   0.01008  -0.0804  0.8370  0.0249  -5.0534   0.0000   0.0000   0.0000   0.0963
  -8.500  -0.5597   0.01526   0.00961  -0.0803  0.8355  0.0252  -4.9730   0.0000   0.0000   0.0000   0.0940
  -8.400  -0.5496   0.01493   0.00924  -0.0802  0.8341  0.0255  -4.8880   0.0000   0.0000   0.0000   0.0915
  -8.300  -0.5393   0.01466   0.00894  -0.0802  0.8327  0.0257  -4.8005   0.0000   0.0000   0.0000   0.0889
  -8.200  -0.5289   0.01443   0.00868  -0.0801  0.8314  0.0260  -4.7117   0.0000   0.0000   0.0000   0.0861
  -8.100  -0.5183   0.01422   0.00845  -0.0801  0.8302  0.0262  -4.6252   0.0000   0.0000   0.0000   0.0831
  -8.000  -0.5077   0.01404   0.00823  -0.0800  0.8289  0.0264  -4.5493   0.0000   0.0000   0.0000   0.0799
  -7.900  -0.4968   0.01385   0.00803  -0.0800  0.8275  0.0267  -4.4727   0.0000   0.0000   0.0000   0.0764
  -7.800  -0.4859   0.01368   0.00784  -0.0801  0.8259  0.0269  -4.3961   0.0000   0.0000   0.0000   0.0728
  -7.700  -0.4749   0.01351   0.00766  -0.0800  0.8245  0.0271  -4.3199   0.0000   0.0000   0.0000   0.0690
  -7.600  -0.4640   0.01335   0.00748  -0.0800  0.8230  0.0273  -4.2441   0.0000   0.0000   0.0000   0.0650
  -7.500  -0.4531   0.01319   0.00729  -0.0800  0.8217  0.0275  -4.1689   0.0000   0.0000   0.0000   0.0609
  -7.400  -0.4422   0.01304   0.00711  -0.0800  0.8204  0.0277  -4.0943   0.0000   0.0000   0.0000   0.0565
  -7.300  -0.4313   0.01289   0.00694  -0.0800  0.8191  0.0280  -4.0204   0.0000   0.0000   0.0000   0.0520
  -7.200  -0.4203   0.01275   0.00677  -0.0799  0.8180  0.0282  -3.9470   0.0000   0.0000   0.0000   0.0472
  -7.100  -0.4092   0.01259   0.00660  -0.0800  0.8165  0.0285  -3.8735   0.0000   0.0000   0.0000   0.0419
  -7.000  -0.3981   0.01244   0.00643  -0.0800  0.8150  0.0287  -3.8007   0.0000   0.0000   0.0000   0.0363
  -6.900  -0.3870   0.01229   0.00627  -0.0800  0.8134  0.0290  -3.7285   0.0000   0.0000   0.0000   0.0305
  -6.800  -0.3758   0.01215   0.00611  -0.0800  0.8120  0.0293  -3.6568   0.0000   0.0000   0.0000   0.0243
  -6.700  -0.3647   0.01201   0.00595  -0.0800  0.8106  0.0296  -3.5857   0.0000   0.0000   0.0000   0.0177
  -6.600  -0.3536   0.01188   0.00579  -0.0800  0.8094  0.0299  -3.5150   0.0000   0.0000   0.0000   0.0107
  -6.500  -0.3424   0.01176   0.00564  -0.0799  0.8082  0.0302  -3.4447   0.0000   0.0000   0.0000   0.0033
  -6.400  -0.3313   0.01164   0.00550  -0.0799  0.8070  0.0306  -3.3747   0.0000   0.0000   0.0000  -0.0047
  -6.300  -0.3200   0.01153   0.00537  -0.0799  0.8056  0.0309  -3.3046   0.0000   0.0000   0.0000  -0.0134
  -6.200  -0.3086   0.01143   0.00525  -0.0800  0.8041  0.0312  -3.2343   0.0000   0.0000   0.0000  -0.0229
  -6.100  -0.2972   0.01133   0.00514  -0.0800  0.8025  0.0315  -3.1640   0.0000   0.0000   0.0000  -0.0331
  -6.000  -0.2862   0.01114   0.00493  -0.0800  0.8010  0.0323  -3.1003   0.0000   0.0000   0.0000  -0.0437
  -5.900  -0.2754   0.01088   0.00467  -0.0800  0.7995  0.0341  -3.0396   0.0000   0.0000   0.0000  -0.0548
  -5.800  -0.2642   0.01076   0.00455  -0.0800  0.7981  0.0355  -2.9709   0.0000   0.0000   0.0000  -0.0674
  -5.700  -0.2529   0.01068   0.00445  -0.0800  0.7968  0.0368  -2.9021   0.0000   0.0000   0.0000  -0.0812
  -5.600  -0.2415   0.01061   0.00436  -0.0800  0.7955  0.0381  -2.8344   0.0000   0.0000   0.0000  -0.0964
  -5.500  -0.2300   0.01054   0.00429  -0.0800  0.7940  0.0391  -2.7662   0.0000   0.0000   0.0000  -0.1136
  -5.400  -0.2188   0.01036   0.00410  -0.0801  0.7923  0.0412  -2.7043   0.0000   0.0000   0.0000  -0.1319
  -5.300  -0.2075   0.01023   0.00398  -0.0801  0.7907  0.0431  -2.6387   0.0000   0.0000   0.0000  -0.1524
  -5.200  -0.1961   0.01014   0.00390  -0.0801  0.7892  0.0447  -2.5802   0.0000   0.0000   0.0000  -0.1756
  -5.100  -0.1846   0.01007   0.00382  -0.0802  0.7877  0.0460  -2.5268   0.0000   0.0000   0.0000  -0.2017
  -5.000  -0.1731   0.01001   0.00374  -0.0802  0.7864  0.0471  -2.4733   0.0000   0.0000   0.0000  -0.2313
  -4.900  -0.1618   0.00990   0.00362  -0.0802  0.7851  0.0488  -2.4223   0.0000   0.0000   0.0000  -0.2645
  -4.800  -0.1505   0.00981   0.00353  -0.0802  0.7838  0.0506  -2.3697   0.0000   0.0000   0.0000  -0.3028
  -4.700  -0.1390   0.00972   0.00345  -0.0803  0.7821  0.0523  -2.3163   0.0000   0.0000   0.0000  -0.3485
  -4.600  -0.1274   0.00965   0.00338  -0.0803  0.7804  0.0539  -2.2631   0.0000   0.0000   0.0000  -0.4025
  -4.500  -0.1158   0.00959   0.00332  -0.0804  0.7787  0.0552  -2.2102   0.0000   0.0000   0.0000  -0.4675
  -4.400  -0.1044   0.00949   0.00321  -0.0804  0.7771  0.0575  -2.1591   0.0000   0.0000   0.0000  -0.5453
  -4.300  -0.0930   0.00939   0.00313  -0.0804  0.7757  0.0599  -2.1071   0.0000   0.0000   0.0000  -0.6424
  -4.200  -0.0816   0.00933   0.00306  -0.0805  0.7743  0.0623  -2.0553   0.0000   0.0000   0.0000  -0.7672
  -4.100  -0.0701   0.00926   0.00298  -0.0805  0.7729  0.0649  -2.0042   0.0000   0.0000   0.0000  -0.9321
  -4.000  -0.0586   0.00917   0.00291  -0.0805  0.7712  0.0684  -1.9529   0.0000   0.0000   0.0000  -1.1636
  -3.900  -0.0471   0.00910   0.00285  -0.0806  0.7693  0.0718  -1.9017   0.0000   0.0000   0.0000  -1.5112
  -3.800  -0.0356   0.00901   0.00279  -0.0806  0.7674  0.0761  -1.8510   0.0000   0.0000   0.0000  -2.0782
  -3.600  -0.0126   0.00887   0.00268  -0.0807  0.7640  0.0850  -1.7501   0.0000   0.0000   0.0000  -6.3256
  -3.500  -0.0011   0.00882   0.00262  -0.0808  0.7625  0.0893  -1.7001   0.0000   0.0000   0.0000  -75.7900
  -3.400   0.0104   0.00875   0.00256  -0.0808  0.7608  0.0940  -1.6505   0.0000   0.0000   0.0000   8.2035
  -3.300   0.0220   0.00868   0.00251  -0.0809  0.7587  0.0984  -1.6011   0.0000   0.0000   0.0000   4.0097
  -3.200   0.0335   0.00861   0.00246  -0.0809  0.7567  0.1033  -1.5521   0.0000   0.0000   0.0000   2.7161
  -3.100   0.0451   0.00854   0.00241  -0.0810  0.7548  0.1082  -1.5035   0.0000   0.0000   0.0000   2.0851
  -2.900   0.0681   0.00842   0.00231  -0.0811  0.7516  0.1200  -1.4074   0.0000   0.0000   0.0000   1.4636
  -2.800   0.0796   0.00836   0.00227  -0.0811  0.7500  0.1263  -1.3599   0.0000   0.0000   0.0000   1.2877
  -2.700   0.0912   0.00830   0.00223  -0.0812  0.7479  0.1324  -1.3128   0.0000   0.0000   0.0000   1.1556
  -2.600   0.1028   0.00823   0.00219  -0.0813  0.7458  0.1391  -1.2661   0.0000   0.0000   0.0000   1.0536
  -2.400   0.1258   0.00809   0.00210  -0.0814  0.7420  0.1567  -1.1742   0.0000   0.0000   0.0000   0.9066
  -2.300   0.1372   0.00802   0.00206  -0.0814  0.7402  0.1682  -1.1290   0.0000   0.0000   0.0000   0.8517
  -2.200   0.1487   0.00795   0.00203  -0.0815  0.7380  0.1804  -1.0841   0.0000   0.0000   0.0000   0.8051
  -2.100   0.1603   0.00787   0.00200  -0.0816  0.7356  0.1924  -1.0395   0.0000   0.0000   0.0000   0.7652
  -2.000   0.1718   0.00780   0.00197  -0.0816  0.7333  0.2039  -0.9955   0.0000   0.0000   0.0000   0.7305
  -1.900   0.1833   0.00774   0.00193  -0.0817  0.7312  0.2150  -0.9519   0.0000   0.0000   0.0000   0.7003
  -1.800   0.1947   0.00768   0.00190  -0.0817  0.7294  0.2267  -0.9088   0.0000   0.0000   0.0000   0.6737
  -1.700   0.2063   0.00762   0.00188  -0.0818  0.7273  0.2392  -0.8660   0.0000   0.0000   0.0000   0.6500
  -1.600   0.2179   0.00755   0.00186  -0.0819  0.7250  0.2519  -0.8236   0.0000   0.0000   0.0000   0.6288
  -1.500   0.2294   0.00749   0.00183  -0.0820  0.7227  0.2654  -0.7817   0.0000   0.0000   0.0000   0.6097
  -1.400   0.2409   0.00742   0.00180  -0.0820  0.7206  0.2802  -0.7509   0.0000   0.0000   0.0000   0.5925
  -1.200   0.2638   0.00729   0.00176  -0.0821  0.7162  0.3135  -0.6928   0.0000   0.0000   0.0000   0.5627
  -1.100   0.2753   0.00721   0.00175  -0.0822  0.7135  0.3325  -0.6640   0.0000   0.0000   0.0000   0.5496
  -1.000   0.2867   0.00713   0.00173  -0.0823  0.7109  0.3530  -0.6425   0.0000   0.0000   0.0000   0.5376
  -0.900   0.2981   0.00705   0.00170  -0.0823  0.7086  0.3769  -0.6504   0.0000   0.0000   0.0000   0.5266
  -0.800   0.3093   0.00695   0.00169  -0.0824  0.7065  0.4056  -0.6584   0.0000   0.0000   0.0000   0.5164
  -0.700   0.3207   0.00683   0.00168  -0.0825  0.7038  0.4388  -0.6664   0.0000   0.0000   0.0000   0.5070
  -0.600   0.3319   0.00671   0.00168  -0.0825  0.7011  0.4738  -0.6744   0.0000   0.0000   0.0000   0.4983
  -0.500   0.3431   0.00661   0.00167  -0.0826  0.6986  0.5103  -0.6833   0.0000   0.0000   0.0000   0.4900
  -0.400   0.3543   0.00652   0.00166  -0.0826  0.6962  0.5425  -0.6923   0.0000   0.0000   0.0000   0.4822
  -0.300   0.3656   0.00643   0.00167  -0.0826  0.6930  0.5737  -0.7013   0.0000   0.0000   0.0000   0.4749
  -0.200   0.3767   0.00635   0.00167  -0.0826  0.6897  0.6026  -0.7103   0.0000   0.0000   0.0000   0.4680
  -0.100   0.3879   0.00628   0.00167  -0.0825  0.6868  0.6310  -0.7207   0.0000   0.0000   0.0000   0.4614
   0.000   0.3990   0.00623   0.00168  -0.0825  0.6837  0.6560  -0.7312   0.0000   0.0000   0.0000   0.4552
   0.100   0.4102   0.00618   0.00169  -0.0825  0.6801  0.6800  -0.7418   0.0000   0.0000   0.0000   0.4493
   0.200   0.4214   0.00614   0.00170  -0.0824  0.6767  0.6998  -0.7524   0.0000   0.0000   0.0000   0.4437
   0.300   0.4325   0.00611   0.00170  -0.0824  0.6735  0.7173  -0.7629   0.0000   0.0000   0.0000   0.4384
   0.400   0.4437   0.00608   0.00172  -0.0823  0.6697  0.7338  -0.7736   0.0000   0.0000   0.0000   0.4333
   0.500   0.4549   0.00606   0.00172  -0.0822  0.6661  0.7491  -0.7842   0.0000   0.0000   0.0000   0.4285
   0.600   0.4660   0.00605   0.00173  -0.0822  0.6629  0.7629  -0.7948   0.0000   0.0000   0.0000   0.4239
   0.700   0.4772   0.00603   0.00175  -0.0821  0.6591  0.7760  -0.8055   0.0000   0.0000   0.0000   0.4195
   0.800   0.4883   0.00601   0.00176  -0.0820  0.6558  0.7896  -0.8161   0.0000   0.0000   0.0000   0.4153
   0.900   0.4992   0.00601   0.00177  -0.0819  0.6527  0.8033  -0.8267   0.0000   0.0000   0.0000   0.4113
   1.000   0.5103   0.00599   0.00179  -0.0818  0.6490  0.8160  -0.8374   0.0000   0.0000   0.0000   0.4074
   1.100   0.5212   0.00598   0.00180  -0.0817  0.6453  0.8286  -0.8486   0.0000   0.0000   0.0000   0.4037
   1.200   0.5319   0.00599   0.00182  -0.0815  0.6420  0.8410  -0.8599   0.0000   0.0000   0.0000   0.4001
   1.400   0.5531   0.00596   0.00186  -0.0811  0.6340  0.8673  -0.8823   0.0000   0.0000   0.0000   0.3932
   1.500   0.5635   0.00596   0.00187  -0.0808  0.6303  0.8808  -0.8933   0.0000   0.0000   0.0000   0.3899
   1.600   0.5737   0.00596   0.00189  -0.0805  0.6259  0.8943  -0.9046   0.0000   0.0000   0.0000   0.3867
   1.700   0.5835   0.00596   0.00191  -0.0801  0.6216  0.9081  -0.9175   0.0000   0.0000   0.0000   0.3835
   1.800   0.5933   0.00596   0.00192  -0.0797  0.6170  0.9228  -0.9305   0.0000   0.0000   0.0000   0.3804
   1.900   0.6033   0.00596   0.00194  -0.0793  0.6121  0.9376  -0.9436   0.0000   0.0000   0.0000   0.3775
   2.000   0.6144   0.00598   0.00195  -0.0792  0.6074  0.9518  -0.9580   0.0000   0.0000   0.0000   0.3748
   2.100   0.6273   0.00599   0.00196  -0.0795  0.6022  0.9644  -0.9738   0.0000   0.0000   0.0000   0.3725
   2.200   0.6416   0.00603   0.00197  -0.0802  0.5971  0.9750  -0.9907   0.0000   0.0000   0.0000   0.3706
   2.300   0.6567   0.00606   0.00198  -0.0810  0.5913  0.9844  -1.0087   0.0000   0.0000   0.0000   0.3689
   2.400   0.6722   0.00610   0.00199  -0.0819  0.5856  0.9935  -1.0271   0.0000   0.0000   0.0000   0.3673
   2.500   0.6866   0.00614   0.00201  -0.0827  0.5795  1.0000  -1.0448   0.0000   0.0000   0.0000   0.3657
   2.600   0.6975   0.00619   0.00203  -0.0826  0.5743  1.0000  -1.0599   0.0000   0.0000   0.0000   0.3637
   2.700   0.7085   0.00624   0.00205  -0.0826  0.5689  1.0000  -1.0750   0.0000   0.0000   0.0000   0.3617
   2.800   0.7195   0.00630   0.00208  -0.0826  0.5639  1.0000  -1.0901   0.0000   0.0000   0.0000   0.3598
   2.900   0.7305   0.00635   0.00211  -0.0826  0.5586  1.0000  -1.1061   0.0000   0.0000   0.0000   0.3579
   3.000   0.7414   0.00641   0.00214  -0.0825  0.5535  1.0000  -1.1225   0.0000   0.0000   0.0000   0.3561
   3.100   0.7524   0.00647   0.00217  -0.0825  0.5479  1.0000  -1.1390   0.0000   0.0000   0.0000   0.3544
   3.200   0.7633   0.00653   0.00221  -0.0825  0.5427  1.0000  -1.1554   0.0000   0.0000   0.0000   0.3527
   3.300   0.7743   0.00659   0.00224  -0.0825  0.5370  1.0000  -1.1720   0.0000   0.0000   0.0000   0.3510
   3.400   0.7852   0.00666   0.00229  -0.0825  0.5318  1.0000  -1.1898   0.0000   0.0000   0.0000   0.3494
   3.500   0.7962   0.00672   0.00233  -0.0824  0.5260  1.0000  -1.2084   0.0000   0.0000   0.0000   0.3478
   3.600   0.8071   0.00679   0.00237  -0.0824  0.5206  1.0000  -1.2270   0.0000   0.0000   0.0000   0.3463
   3.700   0.8180   0.00686   0.00242  -0.0824  0.5148  1.0000  -1.2457   0.0000   0.0000   0.0000   0.3447
   3.800   0.8289   0.00693   0.00246  -0.0824  0.5092  1.0000  -1.2644   0.0000   0.0000   0.0000   0.3433
   3.900   0.8397   0.00700   0.00251  -0.0823  0.5028  1.0000  -1.2831   0.0000   0.0000   0.0000   0.3418
   4.000   0.8506   0.00708   0.00255  -0.0823  0.4964  1.0000  -1.3020   0.0000   0.0000   0.0000   0.3405
   4.100   0.8612   0.00717   0.00261  -0.0822  0.4897  1.0000  -1.3206   0.0000   0.0000   0.0000   0.3391
   4.200   0.8721   0.00724   0.00266  -0.0822  0.4828  1.0000  -1.3425   0.0000   0.0000   0.0000   0.3377
   4.300   0.8828   0.00733   0.00271  -0.0821  0.4764  1.0000  -1.3643   0.0000   0.0000   0.0000   0.3364
   4.400   0.8935   0.00741   0.00277  -0.0821  0.4698  1.0000  -1.3862   0.0000   0.0000   0.0000   0.3351
   4.500   0.9043   0.00749   0.00282  -0.0821  0.4635  1.0000  -1.4083   0.0000   0.0000   0.0000   0.3339
   4.700   0.9257   0.00767   0.00294  -0.0820  0.4509  1.0000  -1.4548   0.0000   0.0000   0.0000   0.3315
   4.800   0.9363   0.00776   0.00300  -0.0819  0.4445  1.0000  -1.4793   0.0000   0.0000   0.0000   0.3303
   4.900   0.9469   0.00786   0.00307  -0.0818  0.4378  1.0000  -1.5039   0.0000   0.0000   0.0000   0.3291
   5.000   0.9575   0.00795   0.00314  -0.0818  0.4309  1.0000  -1.5287   0.0000   0.0000   0.0000   0.3280
   5.100   0.9679   0.00806   0.00321  -0.0817  0.4239  1.0000  -1.5533   0.0000   0.0000   0.0000   0.3269
   5.200   0.9784   0.00816   0.00330  -0.0816  0.4165  1.0000  -1.5781   0.0000   0.0000   0.0000   0.3258
   5.300   0.9889   0.00826   0.00337  -0.0815  0.4095  1.0000  -1.6042   0.0000   0.0000   0.0000   0.3247
   5.400   0.9991   0.00838   0.00345  -0.0814  0.4026  1.0000  -1.6307   0.0000   0.0000   0.0000   0.3236
   5.500   1.0096   0.00848   0.00353  -0.0814  0.3953  1.0000  -1.6575   0.0000   0.0000   0.0000   0.3226
   5.600   1.0199   0.00859   0.00361  -0.0813  0.3882  1.0000  -1.6843   0.0000   0.0000   0.0000   0.3216
   5.700   1.0300   0.00872   0.00370  -0.0812  0.3809  1.0000  -1.7109   0.0000   0.0000   0.0000   0.3206
   5.800   1.0403   0.00883   0.00378  -0.0811  0.3732  1.0000  -1.7400   0.0000   0.0000   0.0000   0.3196
   5.900   1.0506   0.00895   0.00387  -0.0810  0.3658  1.0000  -1.7718   0.0000   0.0000   0.0000   0.3186
   6.000   1.0606   0.00908   0.00396  -0.0808  0.3583  1.0000  -1.8035   0.0000   0.0000   0.0000   0.3176
   6.100   1.0707   0.00921   0.00405  -0.0807  0.3509  1.0000  -1.8354   0.0000   0.0000   0.0000   0.3167
   6.200   1.0809   0.00933   0.00414  -0.0806  0.3440  1.0000  -1.8675   0.0000   0.0000   0.0000   0.3157
   6.300   1.0908   0.00946   0.00424  -0.0805  0.3374  1.0000  -1.8995   0.0000   0.0000   0.0000   0.3148
   6.400   1.1009   0.00959   0.00434  -0.0803  0.3300  1.0000  -1.9334   0.0000   0.0000   0.0000   0.3139
   6.500   1.1108   0.00972   0.00444  -0.0802  0.3226  1.0000  -1.9753   0.0000   0.0000   0.0000   0.3130
   6.600   1.1205   0.00987   0.00455  -0.0800  0.3152  1.0000  -2.0171   0.0000   0.0000   0.0000   0.3121
   6.800   1.1399   0.01017   0.00477  -0.0797  0.2996  1.0000  -2.1015   0.0000   0.0000   0.0000   0.3103
   6.900   1.1496   0.01032   0.00489  -0.0795  0.2921  1.0000  -2.1440   0.0000   0.0000   0.0000   0.3094
   7.000   1.1591   0.01048   0.00501  -0.0793  0.2847  1.0000  -2.1864   0.0000   0.0000   0.0000   0.3086
   7.100   1.1686   0.01064   0.00513  -0.0791  0.2773  1.0000  -2.2314   0.0000   0.0000   0.0000   0.3077
   7.200   1.1782   0.01079   0.00528  -0.0790  0.2702  1.0000  -2.2809   0.0000   0.0000   0.0000   0.3069
   7.300   1.1875   0.01096   0.00541  -0.0787  0.2632  1.0000  -2.3301   0.0000   0.0000   0.0000   0.3060
   7.400   1.1967   0.01113   0.00554  -0.0785  0.2562  1.0000  -2.3794   0.0000   0.0000   0.0000   0.3052
   7.500   1.2061   0.01128   0.00567  -0.0783  0.2494  1.0000  -2.4297   0.0000   0.0000   0.0000   0.3044
   7.600   1.2153   0.01146   0.00581  -0.0781  0.2429  1.0000  -2.4795   0.0000   0.0000   0.0000   0.3036
   7.700   1.2244   0.01163   0.00595  -0.0778  0.2363  1.0000  -2.5296   0.0000   0.0000   0.0000   0.3027
   7.800   1.2337   0.01179   0.00608  -0.0776  0.2303  1.0000  -2.5804   0.0000   0.0000   0.0000   0.3019
   7.900   1.2425   0.01198   0.00623  -0.0773  0.2242  1.0000  -2.6304   0.0000   0.0000   0.0000   0.3011
   8.000   1.2516   0.01214   0.00637  -0.0771  0.2177  1.0000  -2.6814   0.0000   0.0000   0.0000   0.3003
   8.100   1.2604   0.01232   0.00652  -0.0768  0.2113  1.0000  -2.7321   0.0000   0.0000   0.0000   0.2996
   8.200   1.2689   0.01253   0.00668  -0.0765  0.2045  1.0000  -2.7821   0.0000   0.0000   0.0000   0.2987
   8.300   1.2776   0.01271   0.00683  -0.0762  0.1975  1.0000  -2.8332   0.0000   0.0000   0.0000   0.2980
   8.400   1.2862   0.01290   0.00699  -0.0759  0.1911  1.0000  -2.8841   0.0000   0.0000   0.0000   0.2972
   8.500   1.2944   0.01312   0.00717  -0.0755  0.1852  1.0000  -2.9342   0.0000   0.0000   0.0000   0.2964
   8.600   1.3030   0.01329   0.00732  -0.0752  0.1795  1.0000  -2.9860   0.0000   0.0000   0.0000   0.2956
   8.700   1.3113   0.01349   0.00749  -0.0749  0.1743  1.0000  -3.0369   0.0000   0.0000   0.0000   0.2948
   8.800   1.3195   0.01369   0.00767  -0.0745  0.1690  1.0000  -3.0881   0.0000   0.0000   0.0000   0.2941
   8.900   1.3277   0.01389   0.00784  -0.0741  0.1643  1.0000  -3.1395   0.0000   0.0000   0.0000   0.2933
   9.000   1.3356   0.01410   0.00802  -0.0737  0.1594  1.0000  -3.1903   0.0000   0.0000   0.0000   0.2925
   9.200   1.3514   0.01451   0.00841  -0.0729  0.1508  1.0000  -3.2927   0.0000   0.0000   0.0000   0.2910
   9.300   1.3590   0.01470   0.00860  -0.0725  0.1470  1.0000  -3.3436   0.0000   0.0000   0.0000   0.2902
   9.400   1.3661   0.01490   0.00878  -0.0719  0.1429  1.0000  -3.3934   0.0000   0.0000   0.0000   0.2894
   9.500   1.3729   0.01512   0.00898  -0.0713  0.1393  1.0000  -3.4423   0.0000   0.0000   0.0000   0.2885
   9.600   1.3800   0.01532   0.00917  -0.0708  0.1353  1.0000  -3.4927   0.0000   0.0000   0.0000   0.2877
   9.700   1.3865   0.01556   0.00940  -0.0702  0.1316  1.0000  -3.5411   0.0000   0.0000   0.0000   0.2869
   9.800   1.3936   0.01577   0.00960  -0.0697  0.1277  1.0000  -3.5918   0.0000   0.0000   0.0000   0.2861
  10.000   1.4068   0.01626   0.01006  -0.0686  0.1204  1.0000  -3.6907   0.0000   0.0000   0.0000   0.2845
  10.100   1.4129   0.01654   0.01032  -0.0680  0.1167  1.0000  -3.7391   0.0000   0.0000   0.0000   0.2837
  10.200   1.4196   0.01679   0.01056  -0.0675  0.1133  1.0000  -3.7891   0.0000   0.0000   0.0000   0.2830
  10.300   1.4257   0.01708   0.01083  -0.0670  0.1099  1.0000  -3.8378   0.0000   0.0000   0.0000   0.2822
  10.400   1.4320   0.01735   0.01110  -0.0664  0.1068  1.0000  -3.8873   0.0000   0.0000   0.0000   0.2815
  10.500   1.4382   0.01764   0.01137  -0.0659  0.1034  1.0000  -3.9366   0.0000   0.0000   0.0000   0.2808
  10.600   1.4440   0.01795   0.01167  -0.0653  0.1004  1.0000  -3.9849   0.0000   0.0000   0.0000   0.2800
  10.700   1.4502   0.01825   0.01196  -0.0648  0.0973  1.0000  -4.0344   0.0000   0.0000   0.0000   0.2793
  10.800   1.4555   0.01860   0.01230  -0.0642  0.0945  1.0000  -4.0814   0.0000   0.0000   0.0000   0.2786
  10.900   1.4619   0.01889   0.01258  -0.0638  0.0917  1.0000  -4.1320   0.0000   0.0000   0.0000   0.2779
  11.000   1.4674   0.01924   0.01292  -0.0632  0.0890  1.0000  -4.1799   0.0000   0.0000   0.0000   0.2772
  11.100   1.4733   0.01956   0.01326  -0.0627  0.0864  1.0000  -4.2293   0.0000   0.0000   0.0000   0.2765
  11.200   1.4790   0.01990   0.01359  -0.0622  0.0837  1.0000  -4.2784   0.0000   0.0000   0.0000   0.2758
  11.300   1.4843   0.02027   0.01395  -0.0617  0.0813  1.0000  -4.3261   0.0000   0.0000   0.0000   0.2751
  11.400   1.4901   0.02060   0.01429  -0.0612  0.0788  1.0000  -4.3756   0.0000   0.0000   0.0000   0.2745
  11.500   1.4950   0.02101   0.01468  -0.0606  0.0765  1.0000  -4.4224   0.0000   0.0000   0.0000   0.2738
  11.600   1.5007   0.02136   0.01503  -0.0602  0.0743  1.0000  -4.4718   0.0000   0.0000   0.0000   0.2731
  11.700   1.5058   0.02175   0.01542  -0.0597  0.0720  1.0000  -4.5196   0.0000   0.0000   0.0000   0.2725
  11.800   1.5107   0.02216   0.01583  -0.0591  0.0700  1.0000  -4.5666   0.0000   0.0000   0.0000   0.2718
  11.900   1.5161   0.02254   0.01621  -0.0586  0.0679  1.0000  -4.6156   0.0000   0.0000   0.0000   0.2712
  12.000   1.5206   0.02298   0.01665  -0.0581  0.0658  1.0000  -4.6629   0.0000   0.0000   0.0000   0.2705
  12.100   1.5258   0.02338   0.01705  -0.0576  0.0639  1.0000  -4.7149   0.0000   0.0000   0.0000   0.2699
  12.200   1.5305   0.02381   0.01749  -0.0571  0.0619  1.0000  -4.7655   0.0000   0.0000   0.0000   0.2693
  12.300   1.5347   0.02429   0.01795  -0.0566  0.0602  1.0000  -4.8144   0.0000   0.0000   0.0000   0.2686
  12.400   1.5396   0.02471   0.01839  -0.0561  0.0583  1.0000  -4.8659   0.0000   0.0000   0.0000   0.2680
  12.500   1.5436   0.02521   0.01888  -0.0555  0.0567  1.0000  -4.9142   0.0000   0.0000   0.0000   0.2674
  12.600   1.5479   0.02569   0.01936  -0.0550  0.0551  1.0000  -4.9638   0.0000   0.0000   0.0000   0.2668
  12.700   1.5523   0.02616   0.01984  -0.0545  0.0534  1.0000  -5.0136   0.0000   0.0000   0.0000   0.2662
  12.800   1.5556   0.02672   0.02040  -0.0540  0.0520  1.0000  -5.0598   0.0000   0.0000   0.0000   0.2655
  12.900   1.5601   0.02718   0.02088  -0.0535  0.0505  1.0000  -5.1104   0.0000   0.0000   0.0000   0.2650
  13.000   1.5640   0.02770   0.02142  -0.0530  0.0490  1.0000  -5.1589   0.0000   0.0000   0.0000   0.2644
  13.100   1.5670   0.02830   0.02201  -0.0525  0.0478  1.0000  -5.2039   0.0000   0.0000   0.0000   0.2637
  13.200   1.5713   0.02880   0.02252  -0.0520  0.0465  1.0000  -5.2539   0.0000   0.0000   0.0000   0.2632
  13.300   1.5747   0.02937   0.02310  -0.0515  0.0453  1.0000  -5.3008   0.0000   0.0000   0.0000   0.2626
  13.500   1.5811   0.03054   0.02430  -0.0505  0.0431  1.0000  -5.3931   0.0000   0.0000   0.0000   0.2614
  13.600   1.5843   0.03114   0.02491  -0.0501  0.0420  1.0000  -5.4395   0.0000   0.0000   0.0000   0.2609
  13.700   1.5867   0.03181   0.02558  -0.0496  0.0411  1.0000  -5.4828   0.0000   0.0000   0.0000   0.2603
  13.800   1.5896   0.03244   0.02623  -0.0491  0.0402  1.0000  -5.5275   0.0000   0.0000   0.0000   0.2597
  13.900   1.5928   0.03305   0.02686  -0.0487  0.0393  1.0000  -5.5739   0.0000   0.0000   0.0000   0.2592
  14.000   1.5953   0.03372   0.02755  -0.0482  0.0385  1.0000  -5.6177   0.0000   0.0000   0.0000   0.2587
  14.100   1.5970   0.03447   0.02830  -0.0477  0.0378  1.0000  -5.6585   0.0000   0.0000   0.0000   0.2581
  14.200   1.5993   0.03518   0.02903  -0.0472  0.0371  1.0000  -5.7011   0.0000   0.0000   0.0000   0.2576
  14.300   1.6021   0.03584   0.02972  -0.0468  0.0364  1.0000  -5.7469   0.0000   0.0000   0.0000   0.2571
  14.400   1.6041   0.03658   0.03047  -0.0464  0.0357  1.0000  -5.7925   0.0000   0.0000   0.0000   0.2565
  14.500   1.6055   0.03738   0.03128  -0.0460  0.0351  1.0000  -5.8354   0.0000   0.0000   0.0000   0.2560
  14.600   1.6059   0.03828   0.03219  -0.0455  0.0346  1.0000  -5.8739   0.0000   0.0000   0.0000   0.2555
  14.700   1.6083   0.03900   0.03295  -0.0451  0.0341  1.0000  -5.9205   0.0000   0.0000   0.0000   0.2550
  14.800   1.6107   0.03974   0.03372  -0.0448  0.0335  1.0000  -5.9675   0.0000   0.0000   0.0000   0.2546
  14.900   1.6125   0.04054   0.03454  -0.0444  0.0329  1.0000  -6.0122   0.0000   0.0000   0.0000   0.2541
  15.000   1.6136   0.04142   0.03544  -0.0441  0.0325  1.0000  -6.0541   0.0000   0.0000   0.0000   0.2537
  15.100   1.6141   0.04237   0.03641  -0.0438  0.0321  1.0000  -6.0933   0.0000   0.0000   0.0000   0.2532
  15.200   1.6138   0.04342   0.03748  -0.0434  0.0317  1.0000  -6.1284   0.0000   0.0000   0.0000   0.2528
  15.300   1.6162   0.04421   0.03831  -0.0432  0.0312  1.0000  -6.1751   0.0000   0.0000   0.0000   0.2524
  15.400   1.6180   0.04508   0.03921  -0.0429  0.0308  1.0000  -6.2193   0.0000   0.0000   0.0000   0.2520
  15.500   1.6194   0.04598   0.04014  -0.0427  0.0304  1.0000  -6.2621   0.0000   0.0000   0.0000   0.2516
  15.600   1.6201   0.04697   0.04115  -0.0424  0.0301  1.0000  -6.3047   0.0000   0.0000   0.0000   0.2512
  15.700   1.6204   0.04802   0.04222  -0.0422  0.0297  1.0000  -6.3584   0.0000   0.0000   0.0000   0.2508
  15.800   1.6200   0.04915   0.04337  -0.0420  0.0294  1.0000  -6.4080   0.0000   0.0000   0.0000   0.2505
  15.900   1.6187   0.05040   0.04465  -0.0418  0.0292  1.0000  -6.4520   0.0000   0.0000   0.0000   0.2501
  16.000   1.6190   0.05149   0.04577  -0.0417  0.0289  1.0000  -6.5054   0.0000   0.0000   0.0000   0.2498
  16.100   1.6202   0.05249   0.04681  -0.0416  0.0286  1.0000  -6.5639   0.0000   0.0000   0.0000   0.2495
  16.200   1.6210   0.05354   0.04789  -0.0415  0.0283  1.0000  -6.6203   0.0000   0.0000   0.0000   0.2492
  16.300   1.6213   0.05465   0.04904  -0.0414  0.0280  1.0000  -6.6745   0.0000   0.0000   0.0000   0.2489
  16.400   1.6215   0.05580   0.05022  -0.0413  0.0277  1.0000  -6.7273   0.0000   0.0000   0.0000   0.2486
  16.500   1.6212   0.05701   0.05146  -0.0412  0.0275  1.0000  -6.7777   0.0000   0.0000   0.0000   0.2483
  16.600   1.6204   0.05829   0.05277  -0.0412  0.0272  1.0000  -6.8249   0.0000   0.0000   0.0000   0.2481
  16.700   1.6191   0.05964   0.05415  -0.0412  0.0270  1.0000  -6.8688   0.0000   0.0000   0.0000   0.2479
  16.800   1.6170   0.06110   0.05563  -0.0412  0.0269  1.0000  -6.9080   0.0000   0.0000   0.0000   0.2477
  16.900   1.6142   0.06267   0.05723  -0.0413  0.0267  1.0000  -6.9420   0.0000   0.0000   0.0000   0.2475
  17.000   1.6125   0.06411   0.05871  -0.0414  0.0265  1.0000  -6.9828   0.0000   0.0000   0.0000   0.2474
  17.100   1.6121   0.06540   0.06004  -0.0414  0.0263  1.0000  -7.0322   0.0000   0.0000   0.0000   0.2472
  17.200   1.6114   0.06674   0.06142  -0.0415  0.0261  1.0000  -7.0791   0.0000   0.0000   0.0000   0.2470
  17.300   1.6103   0.06814   0.06286  -0.0417  0.0259  1.0000  -7.1238   0.0000   0.0000   0.0000   0.2468
  17.400   1.6089   0.06958   0.06434  -0.0418  0.0257  1.0000  -7.1665   0.0000   0.0000   0.0000   0.2467
  17.500   1.6074   0.07105   0.06585  -0.0420  0.0255  1.0000  -7.2084   0.0000   0.0000   0.0000   0.2466
  17.600   1.6057   0.07256   0.06740  -0.0422  0.0254  1.0000  -7.2487   0.0000   0.0000   0.0000   0.2465
  17.700   1.6038   0.07411   0.06898  -0.0424  0.0252  1.0000  -7.2879   0.0000   0.0000   0.0000   0.2464
  17.800   1.6016   0.07570   0.07061  -0.0426  0.0250  1.0000  -7.3252   0.0000   0.0000   0.0000   0.2464
  17.900   1.5988   0.07739   0.07233  -0.0429  0.0249  1.0000  -7.3581   0.0000   0.0000   0.0000   0.2463
  18.000   1.5956   0.07914   0.07411  -0.0432  0.0247  1.0000  -7.3879   0.0000   0.0000   0.0000   0.2463
  18.100   1.5919   0.08097   0.07597  -0.0436  0.0246  1.0000  -7.4141   0.0000   0.0000   0.0000   0.2464
  18.200   1.5876   0.08291   0.07794  -0.0440  0.0245  1.0000  -7.4353   0.0000   0.0000   0.0000   0.2464
  18.300   1.5826   0.08496   0.08002  -0.0444  0.0244  1.0000  -7.4516   0.0000   0.0000   0.0000   0.2466
  18.400   1.5787   0.08686   0.08195  -0.0449  0.0242  1.0000  -7.4751   0.0000   0.0000   0.0000   0.2467
  18.500   1.5771   0.08844   0.08359  -0.0452  0.0241  1.0000  -7.5142   0.0000   0.0000   0.0000   0.2467
  18.600   1.5750   0.09010   0.08529  -0.0456  0.0239  1.0000  -7.5495   0.0000   0.0000   0.0000   0.2467
  18.700   1.5727   0.09180   0.08703  -0.0461  0.0238  1.0000  -7.5831   0.0000   0.0000   0.0000   0.2468
  18.800   1.5700   0.09357   0.08884  -0.0465  0.0236  1.0000  -7.6135   0.0000   0.0000   0.0000   0.2469
  18.900   1.5672   0.09534   0.09066  -0.0470  0.0235  1.0000  -7.6435   0.0000   0.0000   0.0000   0.2470
  19.000   1.5643   0.09717   0.09252  -0.0475  0.0234  1.0000  -7.6718   0.0000   0.0000   0.0000   0.2471
  19.100   1.5612   0.09902   0.09441  -0.0481  0.0232  1.0000  -7.6984   0.0000   0.0000   0.0000   0.2473
  19.200   1.5581   0.10088   0.09631  -0.0487  0.0231  1.0000  -7.7247   0.0000   0.0000   0.0000   0.2475
  19.300   1.5547   0.10278   0.09825  -0.0493  0.0230  1.0000  -7.7486   0.0000   0.0000   0.0000   0.2477
  19.400   1.5514   0.10468   0.10018  -0.0499  0.0229  1.0000  -7.7723   0.0000   0.0000   0.0000   0.2479
  19.500   1.5480   0.10662   0.10215  -0.0506  0.0228  1.0000  -7.7950   0.0000   0.0000   0.0000   0.2481
  19.600   1.5444   0.10857   0.10414  -0.0513  0.0227  1.0000  -7.8159   0.0000   0.0000   0.0000   0.2484
  19.700   1.5410   0.11053   0.10614  -0.0520  0.0226  1.0000  -7.8370   0.0000   0.0000   0.0000   0.2487
  19.800   1.5371   0.11256   0.10819  -0.0528  0.0225  1.0000  -7.8548   0.0000   0.0000   0.0000   0.2490
  19.900   1.5333   0.11457   0.11023  -0.0536  0.0224  1.0000  -7.8719   0.0000   0.0000   0.0000   0.2494
  20.000   1.5293   0.11662   0.11231  -0.0544  0.0223  1.0000  -7.8868   0.0000   0.0000   0.0000   0.2497


