xflr5 v6.57

 Calculated polar for: QX0123

 1 1 Reynolds number fixed          Mach number fixed         

 xtrf =   1.000 (top)        1.000 (bottom)
 Mach =   0.000     Re =     0.840 e 6     Ncrit =   9.000

  alpha     CL        CD       CDp       Cm    Top Xtr Bot Xtr   Cpmin    Chinge    XCp    
 ------- -------- --------- --------- -------- ------- ------- -------- --------- ---------
 -10.000  -0.7183   0.01800   0.01288  -0.0804  0.8529  0.0212  -6.4384   0.0000   0.0000   0.0000   0.1250
  -9.900  -0.7078   0.01787   0.01271  -0.0804  0.8517  0.0216  -6.3345   0.0000   0.0000   0.0000   0.1234
  -9.800  -0.6971   0.01772   0.01255  -0.0804  0.8503  0.0219  -6.2295   0.0000   0.0000   0.0000   0.1217
  -9.700  -0.6864   0.01758   0.01239  -0.0804  0.8488  0.0223  -6.1250   0.0000   0.0000   0.0000   0.1199
  -9.600  -0.6757   0.01745   0.01224  -0.0804  0.8474  0.0226  -6.0213   0.0000   0.0000   0.0000   0.1181
  -9.500  -0.6649   0.01732   0.01208  -0.0804  0.8460  0.0229  -5.9185   0.0000   0.0000   0.0000   0.1163
  -9.400  -0.6542   0.01719   0.01193  -0.0804  0.8447  0.0232  -5.8165   0.0000   0.0000   0.0000   0.1143
  -9.300  -0.6435   0.01706   0.01176  -0.0804  0.8434  0.0234  -5.7158   0.0000   0.0000   0.0000   0.1124
  -9.200  -0.6329   0.01691   0.01158  -0.0803  0.8422  0.0235  -5.6170   0.0000   0.0000   0.0000   0.1104
  -9.100  -0.6223   0.01678   0.01141  -0.0803  0.8411  0.0237  -5.5188   0.0000   0.0000   0.0000   0.1083
  -9.000  -0.6115   0.01664   0.01124  -0.0803  0.8398  0.0238  -5.4204   0.0000   0.0000   0.0000   0.1061
  -8.900  -0.6006   0.01650   0.01108  -0.0803  0.8385  0.0239  -5.3219   0.0000   0.0000   0.0000   0.1037
  -8.800  -0.5897   0.01636   0.01092  -0.0803  0.8370  0.0240  -5.2240   0.0000   0.0000   0.0000   0.1013
  -8.700  -0.5788   0.01623   0.01077  -0.0803  0.8357  0.0241  -5.1267   0.0000   0.0000   0.0000   0.0987
  -8.600  -0.5680   0.01610   0.01061  -0.0803  0.8343  0.0242  -5.0302   0.0000   0.0000   0.0000   0.0961
  -8.500  -0.5591   0.01548   0.00991  -0.0802  0.8329  0.0245  -4.9606   0.0000   0.0000   0.0000   0.0941
  -8.400  -0.5498   0.01496   0.00933  -0.0801  0.8316  0.0248  -4.8861   0.0000   0.0000   0.0000   0.0920
  -8.300  -0.5400   0.01459   0.00890  -0.0799  0.8304  0.0251  -4.8051   0.0000   0.0000   0.0000   0.0895
  -8.200  -0.5299   0.01429   0.00856  -0.0799  0.8291  0.0254  -4.7206   0.0000   0.0000   0.0000   0.0868
  -8.100  -0.5193   0.01402   0.00827  -0.0799  0.8276  0.0256  -4.6374   0.0000   0.0000   0.0000   0.0838
  -8.000  -0.5087   0.01378   0.00801  -0.0798  0.8261  0.0259  -4.5636   0.0000   0.0000   0.0000   0.0806
  -7.900  -0.4980   0.01357   0.00778  -0.0798  0.8246  0.0261  -4.4887   0.0000   0.0000   0.0000   0.0773
  -7.800  -0.4872   0.01338   0.00757  -0.0798  0.8232  0.0263  -4.4134   0.0000   0.0000   0.0000   0.0737
  -7.700  -0.4763   0.01320   0.00737  -0.0798  0.8218  0.0266  -4.3379   0.0000   0.0000   0.0000   0.0700
  -7.600  -0.4655   0.01304   0.00718  -0.0798  0.8205  0.0268  -4.2623   0.0000   0.0000   0.0000   0.0662
  -7.500  -0.4546   0.01289   0.00700  -0.0797  0.8193  0.0270  -4.1870   0.0000   0.0000   0.0000   0.0621
  -7.400  -0.4437   0.01275   0.00683  -0.0797  0.8181  0.0272  -4.1119   0.0000   0.0000   0.0000   0.0578
  -7.300  -0.4326   0.01259   0.00667  -0.0797  0.8167  0.0275  -4.0367   0.0000   0.0000   0.0000   0.0531
  -7.200  -0.4214   0.01245   0.00651  -0.0797  0.8152  0.0277  -3.9620   0.0000   0.0000   0.0000   0.0481
  -7.100  -0.4103   0.01230   0.00635  -0.0798  0.8137  0.0279  -3.8878   0.0000   0.0000   0.0000   0.0429
  -7.000  -0.3992   0.01216   0.00619  -0.0798  0.8123  0.0282  -3.8143   0.0000   0.0000   0.0000   0.0374
  -6.900  -0.3881   0.01202   0.00603  -0.0798  0.8109  0.0285  -3.7414   0.0000   0.0000   0.0000   0.0317
  -6.800  -0.3770   0.01189   0.00587  -0.0797  0.8096  0.0288  -3.6691   0.0000   0.0000   0.0000   0.0255
  -6.700  -0.3658   0.01176   0.00572  -0.0797  0.8084  0.0291  -3.5974   0.0000   0.0000   0.0000   0.0190
  -6.600  -0.3547   0.01164   0.00557  -0.0797  0.8072  0.0294  -3.5262   0.0000   0.0000   0.0000   0.0121
  -6.500  -0.3435   0.01152   0.00543  -0.0797  0.8059  0.0297  -3.4553   0.0000   0.0000   0.0000   0.0046
  -6.400  -0.3322   0.01139   0.00530  -0.0798  0.8044  0.0301  -3.3846   0.0000   0.0000   0.0000  -0.0035
  -6.300  -0.3208   0.01128   0.00517  -0.0798  0.8029  0.0305  -3.3142   0.0000   0.0000   0.0000  -0.0122
  -6.200  -0.3095   0.01117   0.00505  -0.0798  0.8014  0.0309  -3.2441   0.0000   0.0000   0.0000  -0.0216
  -6.100  -0.2981   0.01108   0.00493  -0.0798  0.8000  0.0313  -3.1739   0.0000   0.0000   0.0000  -0.0316
  -6.000  -0.2868   0.01100   0.00484  -0.0798  0.7986  0.0316  -3.1033   0.0000   0.0000   0.0000  -0.0425
  -5.900  -0.2760   0.01075   0.00456  -0.0798  0.7972  0.0331  -3.0439   0.0000   0.0000   0.0000  -0.0534
  -5.800  -0.2649   0.01059   0.00440  -0.0798  0.7959  0.0348  -2.9783   0.0000   0.0000   0.0000  -0.0657
  -5.700  -0.2536   0.01049   0.00430  -0.0798  0.7945  0.0362  -2.9092   0.0000   0.0000   0.0000  -0.0796
  -5.600  -0.2421   0.01041   0.00422  -0.0799  0.7929  0.0376  -2.8405   0.0000   0.0000   0.0000  -0.0950
  -5.500  -0.2306   0.01034   0.00414  -0.0799  0.7912  0.0388  -2.7723   0.0000   0.0000   0.0000  -0.1120
  -5.400  -0.2191   0.01027   0.00406  -0.0799  0.7897  0.0397  -2.7049   0.0000   0.0000   0.0000  -0.1308
  -5.300  -0.2080   0.01006   0.00386  -0.0799  0.7882  0.0423  -2.6433   0.0000   0.0000   0.0000  -0.1506
  -5.200  -0.1966   0.00997   0.00377  -0.0800  0.7868  0.0440  -2.5855   0.0000   0.0000   0.0000  -0.1735
  -5.100  -0.1852   0.00990   0.00369  -0.0800  0.7855  0.0454  -2.5319   0.0000   0.0000   0.0000  -0.1993
  -5.000  -0.1738   0.00985   0.00361  -0.0800  0.7843  0.0466  -2.4783   0.0000   0.0000   0.0000  -0.2285
  -4.800  -0.1508   0.00965   0.00343  -0.0801  0.7811  0.0497  -2.3733   0.0000   0.0000   0.0000  -0.3008
  -4.700  -0.1394   0.00956   0.00335  -0.0802  0.7794  0.0514  -2.3199   0.0000   0.0000   0.0000  -0.3459
  -4.600  -0.1279   0.00949   0.00328  -0.0802  0.7778  0.0531  -2.2666   0.0000   0.0000   0.0000  -0.3993
  -4.500  -0.1163   0.00943   0.00320  -0.0802  0.7763  0.0546  -2.2136   0.0000   0.0000   0.0000  -0.4633
  -4.400  -0.1048   0.00936   0.00312  -0.0803  0.7749  0.0562  -2.1614   0.0000   0.0000   0.0000  -0.5411
  -4.300  -0.0935   0.00926   0.00303  -0.0803  0.7736  0.0588  -2.1100   0.0000   0.0000   0.0000  -0.6365
  -4.200  -0.0820   0.00919   0.00296  -0.0803  0.7721  0.0613  -2.0580   0.0000   0.0000   0.0000  -0.7601
  -4.100  -0.0704   0.00913   0.00290  -0.0804  0.7703  0.0635  -2.0060   0.0000   0.0000   0.0000  -0.9267
  -4.000  -0.0589   0.00902   0.00283  -0.0804  0.7685  0.0670  -1.9550   0.0000   0.0000   0.0000  -1.1553
  -3.900  -0.0474   0.00895   0.00277  -0.0805  0.7667  0.0706  -1.9037   0.0000   0.0000   0.0000  -1.4964
  -3.800  -0.0359   0.00887   0.00270  -0.0805  0.7650  0.0745  -1.8529   0.0000   0.0000   0.0000  -2.0540
  -3.700  -0.0244   0.00881   0.00264  -0.0806  0.7634  0.0789  -1.8022   0.0000   0.0000   0.0000  -3.1367
  -3.600  -0.0130   0.00875   0.00258  -0.0806  0.7619  0.0834  -1.7520   0.0000   0.0000   0.0000  -6.1170
  -3.500  -0.0013   0.00869   0.00254  -0.0807  0.7600  0.0879  -1.7016   0.0000   0.0000   0.0000  -61.0409
  -3.400   0.0102   0.00861   0.00249  -0.0807  0.7580  0.0923  -1.6519   0.0000   0.0000   0.0000   8.3505
  -3.300   0.0218   0.00856   0.00244  -0.0808  0.7560  0.0966  -1.6023   0.0000   0.0000   0.0000   4.0373
  -3.200   0.0333   0.00848   0.00238  -0.0808  0.7542  0.1014  -1.5534   0.0000   0.0000   0.0000   2.7308
  -3.100   0.0448   0.00842   0.00232  -0.0809  0.7525  0.1061  -1.5047   0.0000   0.0000   0.0000   2.0922
  -3.000   0.0563   0.00836   0.00227  -0.0809  0.7510  0.1114  -1.4565   0.0000   0.0000   0.0000   1.7162
  -2.900   0.0679   0.00830   0.00224  -0.0810  0.7492  0.1174  -1.4085   0.0000   0.0000   0.0000   1.4660
  -2.800   0.0795   0.00824   0.00220  -0.0811  0.7472  0.1236  -1.3608   0.0000   0.0000   0.0000   1.2883
  -2.700   0.0911   0.00818   0.00216  -0.0811  0.7452  0.1299  -1.3135   0.0000   0.0000   0.0000   1.1558
  -2.600   0.1026   0.00812   0.00212  -0.0812  0.7433  0.1363  -1.2669   0.0000   0.0000   0.0000   1.0539
  -2.500   0.1141   0.00805   0.00207  -0.0812  0.7415  0.1435  -1.2207   0.0000   0.0000   0.0000   0.9728
  -2.400   0.1256   0.00799   0.00202  -0.0813  0.7397  0.1522  -1.1750   0.0000   0.0000   0.0000   0.9067
  -2.300   0.1371   0.00791   0.00200  -0.0814  0.7374  0.1629  -1.1296   0.0000   0.0000   0.0000   0.8514
  -2.200   0.1487   0.00783   0.00197  -0.0814  0.7350  0.1751  -1.0846   0.0000   0.0000   0.0000   0.8048
  -2.100   0.1602   0.00777   0.00193  -0.0815  0.7328  0.1873  -1.0400   0.0000   0.0000   0.0000   0.7649
  -2.000   0.1717   0.00770   0.00190  -0.0815  0.7308  0.1988  -0.9960   0.0000   0.0000   0.0000   0.7303
  -1.900   0.1831   0.00764   0.00186  -0.0816  0.7289  0.2102  -0.9525   0.0000   0.0000   0.0000   0.7002
  -1.800   0.1947   0.00758   0.00184  -0.0817  0.7267  0.2216  -0.9091   0.0000   0.0000   0.0000   0.6734
  -1.700   0.2063   0.00751   0.00182  -0.0818  0.7244  0.2336  -0.8663   0.0000   0.0000   0.0000   0.6497
  -1.600   0.2179   0.00746   0.00179  -0.0818  0.7222  0.2463  -0.8238   0.0000   0.0000   0.0000   0.6285
  -1.500   0.2293   0.00739   0.00176  -0.0819  0.7202  0.2592  -0.7820   0.0000   0.0000   0.0000   0.6094
  -1.400   0.2408   0.00734   0.00174  -0.0819  0.7182  0.2732  -0.7512   0.0000   0.0000   0.0000   0.5923
  -1.300   0.2523   0.00727   0.00172  -0.0820  0.7158  0.2883  -0.7220   0.0000   0.0000   0.0000   0.5766
  -1.200   0.2639   0.00720   0.00170  -0.0821  0.7131  0.3048  -0.6929   0.0000   0.0000   0.0000   0.5624
  -1.100   0.2753   0.00713   0.00168  -0.0822  0.7106  0.3227  -0.6642   0.0000   0.0000   0.0000   0.5493
  -1.000   0.2867   0.00706   0.00166  -0.0822  0.7083  0.3421  -0.6426   0.0000   0.0000   0.0000   0.5373
  -0.900   0.2981   0.00698   0.00164  -0.0823  0.7061  0.3637  -0.6506   0.0000   0.0000   0.0000   0.5263
  -0.800   0.3096   0.00688   0.00163  -0.0824  0.7034  0.3903  -0.6586   0.0000   0.0000   0.0000   0.5161
  -0.700   0.3209   0.00678   0.00162  -0.0824  0.7008  0.4214  -0.6666   0.0000   0.0000   0.0000   0.5067
  -0.600   0.3322   0.00667   0.00161  -0.0825  0.6984  0.4558  -0.6746   0.0000   0.0000   0.0000   0.4979
  -0.500   0.3433   0.00656   0.00160  -0.0825  0.6960  0.4920  -0.6835   0.0000   0.0000   0.0000   0.4897
  -0.400   0.3546   0.00646   0.00161  -0.0826  0.6929  0.5262  -0.6925   0.0000   0.0000   0.0000   0.4820
  -0.300   0.3659   0.00637   0.00161  -0.0826  0.6897  0.5577  -0.7015   0.0000   0.0000   0.0000   0.4747
  -0.200   0.3770   0.00630   0.00160  -0.0826  0.6868  0.5867  -0.7105   0.0000   0.0000   0.0000   0.4678
  -0.100   0.3882   0.00622   0.00161  -0.0826  0.6837  0.6152  -0.7210   0.0000   0.0000   0.0000   0.4613
   0.000   0.3994   0.00616   0.00162  -0.0826  0.6802  0.6415  -0.7316   0.0000   0.0000   0.0000   0.4551
   0.100   0.4106   0.00611   0.00162  -0.0825  0.6768  0.6662  -0.7421   0.0000   0.0000   0.0000   0.4492
   0.200   0.4217   0.00607   0.00163  -0.0825  0.6736  0.6884  -0.7527   0.0000   0.0000   0.0000   0.4437
   0.300   0.4330   0.00603   0.00164  -0.0824  0.6699  0.7065  -0.7633   0.0000   0.0000   0.0000   0.4384
   0.400   0.4442   0.00601   0.00165  -0.0824  0.6663  0.7232  -0.7739   0.0000   0.0000   0.0000   0.4333
   0.500   0.4553   0.00599   0.00166  -0.0823  0.6630  0.7390  -0.7845   0.0000   0.0000   0.0000   0.4285
   0.600   0.4666   0.00597   0.00167  -0.0823  0.6592  0.7537  -0.7952   0.0000   0.0000   0.0000   0.4239
   0.700   0.4778   0.00595   0.00168  -0.0822  0.6558  0.7666  -0.8059   0.0000   0.0000   0.0000   0.4195
   0.800   0.4888   0.00595   0.00170  -0.0822  0.6528  0.7801  -0.8165   0.0000   0.0000   0.0000   0.4153
   0.900   0.5000   0.00593   0.00171  -0.0821  0.6491  0.7938  -0.8272   0.0000   0.0000   0.0000   0.4113
   1.000   0.5111   0.00592   0.00173  -0.0820  0.6454  0.8068  -0.8379   0.0000   0.0000   0.0000   0.4075
   1.200   0.5330   0.00590   0.00176  -0.0818  0.6382  0.8317  -0.8606   0.0000   0.0000   0.0000   0.4002
   1.300   0.5438   0.00590   0.00178  -0.0816  0.6342  0.8448  -0.8719   0.0000   0.0000   0.0000   0.3968
   1.400   0.5543   0.00590   0.00180  -0.0814  0.6305  0.8575  -0.8830   0.0000   0.0000   0.0000   0.3934
   1.500   0.5649   0.00589   0.00182  -0.0812  0.6262  0.8710  -0.8943   0.0000   0.0000   0.0000   0.3902
   1.600   0.5751   0.00589   0.00183  -0.0809  0.6219  0.8841  -0.9057   0.0000   0.0000   0.0000   0.3870
   1.700   0.5852   0.00589   0.00185  -0.0806  0.6174  0.8977  -0.9188   0.0000   0.0000   0.0000   0.3839
   1.800   0.5951   0.00589   0.00187  -0.0802  0.6125  0.9122  -0.9318   0.0000   0.0000   0.0000   0.3808
   1.900   0.6048   0.00590   0.00189  -0.0797  0.6079  0.9268  -0.9447   0.0000   0.0000   0.0000   0.3778
   2.000   0.6149   0.00590   0.00190  -0.0794  0.6030  0.9413  -0.9584   0.0000   0.0000   0.0000   0.3750
   2.100   0.6262   0.00593   0.00191  -0.0793  0.5982  0.9553  -0.9730   0.0000   0.0000   0.0000   0.3724
   2.200   0.6396   0.00594   0.00193  -0.0797  0.5926  0.9673  -0.9892   0.0000   0.0000   0.0000   0.3703
   2.300   0.6538   0.00599   0.00194  -0.0804  0.5872  0.9777  -1.0066   0.0000   0.0000   0.0000   0.3685
   2.400   0.6690   0.00602   0.00195  -0.0813  0.5810  0.9872  -1.0248   0.0000   0.0000   0.0000   0.3669
   2.500   0.6846   0.00606   0.00197  -0.0822  0.5753  0.9962  -1.0434   0.0000   0.0000   0.0000   0.3655
   2.600   0.6976   0.00611   0.00199  -0.0827  0.5695  1.0000  -1.0600   0.0000   0.0000   0.0000   0.3637
   2.700   0.7086   0.00616   0.00201  -0.0826  0.5646  1.0000  -1.0751   0.0000   0.0000   0.0000   0.3617
   2.800   0.7196   0.00621   0.00204  -0.0826  0.5593  1.0000  -1.0903   0.0000   0.0000   0.0000   0.3598
   2.900   0.7305   0.00627   0.00207  -0.0826  0.5542  1.0000  -1.1062   0.0000   0.0000   0.0000   0.3580
   3.000   0.7416   0.00633   0.00210  -0.0826  0.5487  1.0000  -1.1227   0.0000   0.0000   0.0000   0.3562
   3.100   0.7525   0.00639   0.00213  -0.0825  0.5435  1.0000  -1.1391   0.0000   0.0000   0.0000   0.3544
   3.200   0.7635   0.00645   0.00217  -0.0825  0.5378  1.0000  -1.1557   0.0000   0.0000   0.0000   0.3527
   3.300   0.7744   0.00651   0.00220  -0.0825  0.5326  1.0000  -1.1722   0.0000   0.0000   0.0000   0.3510
   3.400   0.7855   0.00657   0.00225  -0.0825  0.5269  1.0000  -1.1902   0.0000   0.0000   0.0000   0.3494
   3.500   0.7963   0.00664   0.00229  -0.0825  0.5216  1.0000  -1.2087   0.0000   0.0000   0.0000   0.3478
   3.600   0.8073   0.00670   0.00233  -0.0825  0.5158  1.0000  -1.2274   0.0000   0.0000   0.0000   0.3463
   3.700   0.8182   0.00678   0.00238  -0.0824  0.5103  1.0000  -1.2460   0.0000   0.0000   0.0000   0.3448
   3.800   0.8291   0.00685   0.00242  -0.0824  0.5041  1.0000  -1.2648   0.0000   0.0000   0.0000   0.3433
   3.900   0.8400   0.00692   0.00247  -0.0824  0.4979  1.0000  -1.2835   0.0000   0.0000   0.0000   0.3419
   4.000   0.8507   0.00701   0.00252  -0.0823  0.4911  1.0000  -1.3022   0.0000   0.0000   0.0000   0.3405
   4.100   0.8616   0.00708   0.00256  -0.0823  0.4843  1.0000  -1.3212   0.0000   0.0000   0.0000   0.3391
   4.200   0.8723   0.00717   0.00262  -0.0823  0.4778  1.0000  -1.3429   0.0000   0.0000   0.0000   0.3378
   4.300   0.8831   0.00725   0.00267  -0.0822  0.4711  1.0000  -1.3648   0.0000   0.0000   0.0000   0.3365
   4.400   0.8938   0.00733   0.00272  -0.0822  0.4649  1.0000  -1.3867   0.0000   0.0000   0.0000   0.3352
   4.500   0.9045   0.00742   0.00278  -0.0821  0.4586  1.0000  -1.4086   0.0000   0.0000   0.0000   0.3340
   4.600   0.9153   0.00750   0.00284  -0.0821  0.4524  1.0000  -1.4308   0.0000   0.0000   0.0000   0.3327
   4.700   0.9259   0.00760   0.00290  -0.0820  0.4460  1.0000  -1.4552   0.0000   0.0000   0.0000   0.3315
   4.800   0.9367   0.00768   0.00296  -0.0820  0.4393  1.0000  -1.4799   0.0000   0.0000   0.0000   0.3304
   4.900   0.9472   0.00777   0.00303  -0.0819  0.4327  1.0000  -1.5045   0.0000   0.0000   0.0000   0.3292
   5.000   0.9577   0.00788   0.00310  -0.0819  0.4256  1.0000  -1.5292   0.0000   0.0000   0.0000   0.3281
   5.100   0.9683   0.00797   0.00316  -0.0818  0.4184  1.0000  -1.5540   0.0000   0.0000   0.0000   0.3270
   5.200   0.9788   0.00808   0.00326  -0.0817  0.4113  1.0000  -1.5788   0.0000   0.0000   0.0000   0.3259
   5.300   0.9892   0.00819   0.00333  -0.0816  0.4042  1.0000  -1.6048   0.0000   0.0000   0.0000   0.3248
   5.400   0.9997   0.00829   0.00341  -0.0816  0.3972  1.0000  -1.6317   0.0000   0.0000   0.0000   0.3237
   5.500   1.0100   0.00840   0.00348  -0.0815  0.3902  1.0000  -1.6583   0.0000   0.0000   0.0000   0.3227
   5.600   1.0203   0.00852   0.00357  -0.0814  0.3828  1.0000  -1.6850   0.0000   0.0000   0.0000   0.3216
   5.700   1.0306   0.00863   0.00365  -0.0813  0.3753  1.0000  -1.7120   0.0000   0.0000   0.0000   0.3206
   5.800   1.0408   0.00875   0.00373  -0.0812  0.3680  1.0000  -1.7412   0.0000   0.0000   0.0000   0.3196
   6.000   1.0612   0.00899   0.00391  -0.0810  0.3528  1.0000  -1.8048   0.0000   0.0000   0.0000   0.3177
   6.100   1.0713   0.00912   0.00400  -0.0809  0.3458  1.0000  -1.8367   0.0000   0.0000   0.0000   0.3167
   6.300   1.0916   0.00937   0.00419  -0.0806  0.3321  1.0000  -1.9011   0.0000   0.0000   0.0000   0.3149
   6.400   1.1015   0.00950   0.00429  -0.0805  0.3249  1.0000  -1.9356   0.0000   0.0000   0.0000   0.3140
   6.500   1.1112   0.00966   0.00440  -0.0803  0.3175  1.0000  -1.9770   0.0000   0.0000   0.0000   0.3131
   6.600   1.1212   0.00979   0.00450  -0.0802  0.3096  1.0000  -2.0194   0.0000   0.0000   0.0000   0.3122
   6.700   1.1310   0.00993   0.00461  -0.0800  0.3020  1.0000  -2.0616   0.0000   0.0000   0.0000   0.3113
   6.800   1.1406   0.01009   0.00472  -0.0799  0.2945  1.0000  -2.1038   0.0000   0.0000   0.0000   0.3104
   6.900   1.1502   0.01024   0.00484  -0.0797  0.2868  1.0000  -2.1462   0.0000   0.0000   0.0000   0.3095
   7.000   1.1600   0.01038   0.00495  -0.0795  0.2795  1.0000  -2.1891   0.0000   0.0000   0.0000   0.3087
   7.100   1.1695   0.01054   0.00507  -0.0793  0.2725  1.0000  -2.2348   0.0000   0.0000   0.0000   0.3078
   7.200   1.1788   0.01071   0.00522  -0.0791  0.2653  1.0000  -2.2836   0.0000   0.0000   0.0000   0.3070
   7.300   1.1884   0.01086   0.00534  -0.0789  0.2582  1.0000  -2.3336   0.0000   0.0000   0.0000   0.3061
   7.400   1.1978   0.01102   0.00547  -0.0787  0.2516  1.0000  -2.3834   0.0000   0.0000   0.0000   0.3053
   7.500   1.2069   0.01120   0.00561  -0.0785  0.2448  1.0000  -2.4329   0.0000   0.0000   0.0000   0.3045
   7.600   1.2163   0.01135   0.00574  -0.0783  0.2381  1.0000  -2.4835   0.0000   0.0000   0.0000   0.3037
   7.700   1.2255   0.01152   0.00587  -0.0781  0.2320  1.0000  -2.5339   0.0000   0.0000   0.0000   0.3029
   7.800   1.2346   0.01170   0.00601  -0.0778  0.2257  1.0000  -2.5841   0.0000   0.0000   0.0000   0.3021
   7.900   1.2438   0.01186   0.00615  -0.0776  0.2196  1.0000  -2.6353   0.0000   0.0000   0.0000   0.3013
   8.000   1.2527   0.01204   0.00630  -0.0773  0.2133  1.0000  -2.6856   0.0000   0.0000   0.0000   0.3005
   8.100   1.2615   0.01223   0.00645  -0.0770  0.2064  1.0000  -2.7363   0.0000   0.0000   0.0000   0.2997
   8.200   1.2703   0.01241   0.00660  -0.0767  0.1995  1.0000  -2.7874   0.0000   0.0000   0.0000   0.2989
   8.300   1.2789   0.01261   0.00675  -0.0764  0.1929  1.0000  -2.8380   0.0000   0.0000   0.0000   0.2981
   8.400   1.2873   0.01281   0.00692  -0.0761  0.1866  1.0000  -2.8885   0.0000   0.0000   0.0000   0.2973
   8.500   1.2961   0.01298   0.00707  -0.0758  0.1810  1.0000  -2.9403   0.0000   0.0000   0.0000   0.2965
   8.600   1.3043   0.01319   0.00724  -0.0755  0.1756  1.0000  -2.9910   0.0000   0.0000   0.0000   0.2957
   8.700   1.3129   0.01337   0.00740  -0.0751  0.1703  1.0000  -3.0430   0.0000   0.0000   0.0000   0.2950
   8.800   1.3211   0.01357   0.00757  -0.0748  0.1655  1.0000  -3.0941   0.0000   0.0000   0.0000   0.2942
   8.900   1.3294   0.01376   0.00774  -0.0744  0.1606  1.0000  -3.1458   0.0000   0.0000   0.0000   0.2934
   9.000   1.3374   0.01396   0.00792  -0.0740  0.1563  1.0000  -3.1970   0.0000   0.0000   0.0000   0.2927
   9.100   1.3455   0.01416   0.00812  -0.0737  0.1519  1.0000  -3.2488   0.0000   0.0000   0.0000   0.2919
   9.200   1.3533   0.01437   0.00831  -0.0733  0.1480  1.0000  -3.2999   0.0000   0.0000   0.0000   0.2911
   9.300   1.3614   0.01455   0.00848  -0.0729  0.1438  1.0000  -3.3522   0.0000   0.0000   0.0000   0.2904
   9.400   1.3683   0.01477   0.00868  -0.0723  0.1400  1.0000  -3.4012   0.0000   0.0000   0.0000   0.2895
   9.500   1.3757   0.01495   0.00885  -0.0718  0.1362  1.0000  -3.4523   0.0000   0.0000   0.0000   0.2887
   9.700   1.3895   0.01538   0.00925  -0.0707  0.1286  1.0000  -3.5517   0.0000   0.0000   0.0000   0.2871
   9.800   1.3959   0.01563   0.00948  -0.0701  0.1248  1.0000  -3.6005   0.0000   0.0000   0.0000   0.2863
   9.900   1.4028   0.01585   0.00969  -0.0696  0.1212  1.0000  -3.6509   0.0000   0.0000   0.0000   0.2855
  10.000   1.4093   0.01610   0.00993  -0.0690  0.1174  1.0000  -3.7000   0.0000   0.0000   0.0000   0.2847
  10.100   1.4158   0.01635   0.01016  -0.0684  0.1141  1.0000  -3.7497   0.0000   0.0000   0.0000   0.2840
  10.200   1.4222   0.01661   0.01041  -0.0679  0.1105  1.0000  -3.7992   0.0000   0.0000   0.0000   0.2832
  10.300   1.4284   0.01689   0.01068  -0.0673  0.1074  1.0000  -3.8482   0.0000   0.0000   0.0000   0.2824
  10.400   1.4349   0.01715   0.01093  -0.0668  0.1040  1.0000  -3.8982   0.0000   0.0000   0.0000   0.2817
  10.500   1.4407   0.01746   0.01122  -0.0663  0.1010  1.0000  -3.9463   0.0000   0.0000   0.0000   0.2809
  10.600   1.4471   0.01774   0.01149  -0.0658  0.0979  1.0000  -3.9966   0.0000   0.0000   0.0000   0.2802
  10.700   1.4527   0.01807   0.01181  -0.0652  0.0950  1.0000  -4.0443   0.0000   0.0000   0.0000   0.2795
  10.800   1.4590   0.01836   0.01209  -0.0647  0.0923  1.0000  -4.0946   0.0000   0.0000   0.0000   0.2788
  10.900   1.4648   0.01868   0.01241  -0.0641  0.0894  1.0000  -4.1433   0.0000   0.0000   0.0000   0.2781
  11.000   1.4706   0.01901   0.01273  -0.0636  0.0869  1.0000  -4.1923   0.0000   0.0000   0.0000   0.2774
  11.100   1.4766   0.01932   0.01305  -0.0631  0.0842  1.0000  -4.2422   0.0000   0.0000   0.0000   0.2767
  11.200   1.4818   0.01969   0.01340  -0.0626  0.0816  1.0000  -4.2898   0.0000   0.0000   0.0000   0.2760
  11.300   1.4879   0.02000   0.01372  -0.0621  0.0792  1.0000  -4.3400   0.0000   0.0000   0.0000   0.2753
  11.400   1.4931   0.02038   0.01409  -0.0616  0.0768  1.0000  -4.3878   0.0000   0.0000   0.0000   0.2746
  11.500   1.4987   0.02073   0.01444  -0.0611  0.0747  1.0000  -4.4369   0.0000   0.0000   0.0000   0.2740
  11.600   1.5042   0.02110   0.01480  -0.0606  0.0724  1.0000  -4.4857   0.0000   0.0000   0.0000   0.2733
  11.700   1.5090   0.02151   0.01521  -0.0600  0.0703  1.0000  -4.5325   0.0000   0.0000   0.0000   0.2727
  11.800   1.5147   0.02186   0.01556  -0.0596  0.0682  1.0000  -4.5824   0.0000   0.0000   0.0000   0.2720
  11.900   1.5195   0.02228   0.01598  -0.0590  0.0661  1.0000  -4.6294   0.0000   0.0000   0.0000   0.2714
  12.000   1.5246   0.02267   0.01638  -0.0585  0.0642  1.0000  -4.6794   0.0000   0.0000   0.0000   0.2707
  12.100   1.5297   0.02308   0.01678  -0.0580  0.0622  1.0000  -4.7311   0.0000   0.0000   0.0000   0.2701
  12.200   1.5339   0.02355   0.01724  -0.0575  0.0604  1.0000  -4.7800   0.0000   0.0000   0.0000   0.2694
  12.300   1.5391   0.02395   0.01765  -0.0570  0.0586  1.0000  -4.8326   0.0000   0.0000   0.0000   0.2688
  12.400   1.5433   0.02442   0.01812  -0.0565  0.0569  1.0000  -4.8818   0.0000   0.0000   0.0000   0.2682
  12.500   1.5477   0.02488   0.01859  -0.0560  0.0553  1.0000  -4.9317   0.0000   0.0000   0.0000   0.2676
  12.600   1.5523   0.02534   0.01905  -0.0555  0.0536  1.0000  -4.9825   0.0000   0.0000   0.0000   0.2670
  12.700   1.5559   0.02586   0.01957  -0.0549  0.0521  1.0000  -5.0298   0.0000   0.0000   0.0000   0.2663
  12.800   1.5605   0.02632   0.02004  -0.0544  0.0506  1.0000  -5.0808   0.0000   0.0000   0.0000   0.2657
  12.900   1.5646   0.02682   0.02054  -0.0539  0.0491  1.0000  -5.1300   0.0000   0.0000   0.0000   0.2651
  13.000   1.5678   0.02739   0.02112  -0.0534  0.0478  1.0000  -5.1761   0.0000   0.0000   0.0000   0.2645
  13.100   1.5723   0.02787   0.02162  -0.0529  0.0465  1.0000  -5.2267   0.0000   0.0000   0.0000   0.2639
  13.200   1.5759   0.02841   0.02217  -0.0524  0.0453  1.0000  -5.2744   0.0000   0.0000   0.0000   0.2633
  13.300   1.5786   0.02903   0.02279  -0.0519  0.0442  1.0000  -5.3189   0.0000   0.0000   0.0000   0.2627
  13.400   1.5828   0.02954   0.02331  -0.0514  0.0430  1.0000  -5.3689   0.0000   0.0000   0.0000   0.2622
  13.500   1.5862   0.03011   0.02389  -0.0510  0.0419  1.0000  -5.4161   0.0000   0.0000   0.0000   0.2616
  13.600   1.5887   0.03076   0.02455  -0.0504  0.0410  1.0000  -5.4598   0.0000   0.0000   0.0000   0.2610
  13.700   1.5921   0.03134   0.02515  -0.0500  0.0401  1.0000  -5.5068   0.0000   0.0000   0.0000   0.2605
  13.800   1.5954   0.03194   0.02576  -0.0495  0.0391  1.0000  -5.5537   0.0000   0.0000   0.0000   0.2599
  13.900   1.5980   0.03259   0.02643  -0.0490  0.0383  1.0000  -5.5980   0.0000   0.0000   0.0000   0.2593
  14.000   1.5997   0.03333   0.02717  -0.0485  0.0376  1.0000  -5.6389   0.0000   0.0000   0.0000   0.2588
  14.100   1.6029   0.03395   0.02781  -0.0481  0.0368  1.0000  -5.6852   0.0000   0.0000   0.0000   0.2583
  14.200   1.6056   0.03461   0.02849  -0.0477  0.0361  1.0000  -5.7301   0.0000   0.0000   0.0000   0.2577
  14.300   1.6077   0.03533   0.02923  -0.0472  0.0355  1.0000  -5.7746   0.0000   0.0000   0.0000   0.2572
  14.400   1.6090   0.03613   0.03004  -0.0467  0.0349  1.0000  -5.8174   0.0000   0.0000   0.0000   0.2567
  14.500   1.6105   0.03692   0.03084  -0.0463  0.0343  1.0000  -5.8604   0.0000   0.0000   0.0000   0.2562
  14.600   1.6135   0.03758   0.03153  -0.0459  0.0337  1.0000  -5.9099   0.0000   0.0000   0.0000   0.2557
  14.700   1.6156   0.03831   0.03229  -0.0455  0.0331  1.0000  -5.9563   0.0000   0.0000   0.0000   0.2552
  14.800   1.6173   0.03911   0.03311  -0.0452  0.0326  1.0000  -6.0006   0.0000   0.0000   0.0000   0.2547
  14.900   1.6183   0.03998   0.03400  -0.0448  0.0321  1.0000  -6.0420   0.0000   0.0000   0.0000   0.2542
  15.000   1.6184   0.04095   0.03499  -0.0444  0.0317  1.0000  -6.0794   0.0000   0.0000   0.0000   0.2537
  15.100   1.6207   0.04172   0.03579  -0.0441  0.0313  1.0000  -6.1260   0.0000   0.0000   0.0000   0.2533
  15.200   1.6228   0.04251   0.03662  -0.0438  0.0308  1.0000  -6.1722   0.0000   0.0000   0.0000   0.2529
  15.300   1.6244   0.04337   0.03750  -0.0435  0.0304  1.0000  -6.2164   0.0000   0.0000   0.0000   0.2524
  15.400   1.6256   0.04428   0.03843  -0.0432  0.0300  1.0000  -6.2588   0.0000   0.0000   0.0000   0.2520
  15.500   1.6262   0.04526   0.03944  -0.0429  0.0297  1.0000  -6.3025   0.0000   0.0000   0.0000   0.2516
  15.600   1.6262   0.04633   0.04052  -0.0427  0.0294  1.0000  -6.3541   0.0000   0.0000   0.0000   0.2512
  15.700   1.6252   0.04751   0.04172  -0.0424  0.0291  1.0000  -6.4002   0.0000   0.0000   0.0000   0.2509
  15.800   1.6268   0.04842   0.04266  -0.0422  0.0288  1.0000  -6.4618   0.0000   0.0000   0.0000   0.2505
  15.900   1.6283   0.04935   0.04363  -0.0421  0.0284  1.0000  -6.5228   0.0000   0.0000   0.0000   0.2501
  16.000   1.6294   0.05035   0.04466  -0.0419  0.0281  1.0000  -6.5811   0.0000   0.0000   0.0000   0.2498
  16.100   1.6302   0.05138   0.04572  -0.0418  0.0278  1.0000  -6.6383   0.0000   0.0000   0.0000   0.2495
  16.200   1.6304   0.05247   0.04684  -0.0416  0.0276  1.0000  -6.6926   0.0000   0.0000   0.0000   0.2492
  16.300   1.6303   0.05362   0.04802  -0.0415  0.0273  1.0000  -6.7443   0.0000   0.0000   0.0000   0.2489
  16.400   1.6296   0.05486   0.04928  -0.0414  0.0271  1.0000  -6.7925   0.0000   0.0000   0.0000   0.2486
  16.500   1.6282   0.05618   0.05063  -0.0414  0.0269  1.0000  -6.8368   0.0000   0.0000   0.0000   0.2483
  16.600   1.6261   0.05761   0.05209  -0.0413  0.0267  1.0000  -6.8760   0.0000   0.0000   0.0000   0.2481
  16.700   1.6254   0.05889   0.05340  -0.0413  0.0265  1.0000  -6.9237   0.0000   0.0000   0.0000   0.2478
  16.800   1.6256   0.06006   0.05462  -0.0413  0.0262  1.0000  -6.9771   0.0000   0.0000   0.0000   0.2476
  16.900   1.6253   0.06130   0.05589  -0.0413  0.0260  1.0000  -7.0278   0.0000   0.0000   0.0000   0.2474
  17.000   1.6247   0.06259   0.05722  -0.0413  0.0258  1.0000  -7.0764   0.0000   0.0000   0.0000   0.2472
  17.100   1.6240   0.06391   0.05857  -0.0414  0.0256  1.0000  -7.1241   0.0000   0.0000   0.0000   0.2470
  17.200   1.6230   0.06528   0.05997  -0.0415  0.0254  1.0000  -7.1701   0.0000   0.0000   0.0000   0.2468
  17.300   1.6218   0.06667   0.06141  -0.0416  0.0252  1.0000  -7.2153   0.0000   0.0000   0.0000   0.2466
  17.400   1.6203   0.06812   0.06290  -0.0417  0.0251  1.0000  -7.2577   0.0000   0.0000   0.0000   0.2465
  17.500   1.6181   0.06966   0.06446  -0.0419  0.0249  1.0000  -7.2963   0.0000   0.0000   0.0000   0.2464
  17.600   1.6156   0.07127   0.06610  -0.0421  0.0247  1.0000  -7.3319   0.0000   0.0000   0.0000   0.2463
  17.700   1.6124   0.07297   0.06783  -0.0423  0.0246  1.0000  -7.3632   0.0000   0.0000   0.0000   0.2462
  17.800   1.6085   0.07479   0.06969  -0.0426  0.0245  1.0000  -7.3890   0.0000   0.0000   0.0000   0.2462
  17.900   1.6038   0.07673   0.07166  -0.0429  0.0243  1.0000  -7.4093   0.0000   0.0000   0.0000   0.2463
  18.000   1.6019   0.07830   0.07327  -0.0432  0.0242  1.0000  -7.4479   0.0000   0.0000   0.0000   0.2462
  18.100   1.6006   0.07981   0.07482  -0.0434  0.0240  1.0000  -7.4900   0.0000   0.0000   0.0000   0.2461
  18.200   1.5989   0.08136   0.07642  -0.0437  0.0239  1.0000  -7.5299   0.0000   0.0000   0.0000   0.2461
  18.300   1.5968   0.08298   0.07807  -0.0440  0.0237  1.0000  -7.5672   0.0000   0.0000   0.0000   0.2461
  18.400   1.5944   0.08465   0.07979  -0.0444  0.0235  1.0000  -7.6022   0.0000   0.0000   0.0000   0.2461
  18.500   1.5920   0.08634   0.08151  -0.0448  0.0234  1.0000  -7.6364   0.0000   0.0000   0.0000   0.2461
  18.600   1.5892   0.08809   0.08330  -0.0452  0.0232  1.0000  -7.6680   0.0000   0.0000   0.0000   0.2462
  18.700   1.5863   0.08986   0.08511  -0.0456  0.0231  1.0000  -7.6985   0.0000   0.0000   0.0000   0.2462
  18.800   1.5833   0.09166   0.08694  -0.0461  0.0230  1.0000  -7.7277   0.0000   0.0000   0.0000   0.2463
  18.900   1.5799   0.09352   0.08884  -0.0466  0.0229  1.0000  -7.7542   0.0000   0.0000   0.0000   0.2465
  19.000   1.5765   0.09539   0.09075  -0.0471  0.0228  1.0000  -7.7800   0.0000   0.0000   0.0000   0.2466
  19.100   1.5728   0.09732   0.09271  -0.0477  0.0226  1.0000  -7.8032   0.0000   0.0000   0.0000   0.2468
  19.200   1.5687   0.09932   0.09475  -0.0483  0.0226  1.0000  -7.8229   0.0000   0.0000   0.0000   0.2470
  19.300   1.5645   0.10135   0.09681  -0.0489  0.0225  1.0000  -7.8410   0.0000   0.0000   0.0000   0.2472
  19.400   1.5599   0.10343   0.09892  -0.0496  0.0224  1.0000  -7.8561   0.0000   0.0000   0.0000   0.2475
  19.500   1.5550   0.10557   0.10110  -0.0503  0.0223  1.0000  -7.8681   0.0000   0.0000   0.0000   0.2478
  19.600   1.5501   0.10774   0.10330  -0.0511  0.0222  1.0000  -7.8786   0.0000   0.0000   0.0000   0.2482
  19.700   1.5449   0.10995   0.10554  -0.0519  0.0221  1.0000  -7.8864   0.0000   0.0000   0.0000   0.2485
  19.800   1.5419   0.11184   0.10747  -0.0526  0.0220  1.0000  -7.9106   0.0000   0.0000   0.0000   0.2488
  19.900   1.5395   0.11364   0.10932  -0.0533  0.0219  1.0000  -7.9388   0.0000   0.0000   0.0000   0.2490
  20.000   1.5368   0.11551   0.11122  -0.0541  0.0219  1.0000  -7.9636   0.0000   0.0000   0.0000   0.2493


