xflr5 v6.57

 Calculated polar for: QX0123

 1 1 Reynolds number fixed          Mach number fixed         

 xtrf =   1.000 (top)        1.000 (bottom)
 Mach =   0.000     Re =     0.600 e 6     Ncrit =   9.000

  alpha     CL        CD       CDp       Cm    Top Xtr Bot Xtr   Cpmin    Chinge    XCp    
 ------- -------- --------- --------- -------- ------- ------- -------- --------- ---------
 -10.000  -0.6926   0.02266   0.01764  -0.0833  0.8747  0.0233  -6.1263   0.0000   0.0000   0.0000   0.1166
  -9.900  -0.6827   0.02248   0.01741  -0.0832  0.8732  0.0236  -6.0301   0.0000   0.0000   0.0000   0.1149
  -9.800  -0.6723   0.02235   0.01725  -0.0832  0.8714  0.0238  -5.9308   0.0000   0.0000   0.0000   0.1131
  -9.700  -0.6618   0.02226   0.01713  -0.0832  0.8697  0.0240  -5.8301   0.0000   0.0000   0.0000   0.1112
  -9.600  -0.6512   0.02222   0.01705  -0.0832  0.8681  0.0241  -5.7285   0.0000   0.0000   0.0000   0.1093
  -9.500  -0.6482   0.02030   0.01491  -0.0829  0.8664  0.0250  -5.7307   0.0000   0.0000   0.0000   0.1092
  -9.400  -0.6400   0.01967   0.01422  -0.0827  0.8650  0.0255  -5.6592   0.0000   0.0000   0.0000   0.1078
  -9.300  -0.6306   0.01933   0.01383  -0.0826  0.8638  0.0259  -5.5725   0.0000   0.0000   0.0000   0.1061
  -9.200  -0.6207   0.01908   0.01355  -0.0826  0.8625  0.0262  -5.4807   0.0000   0.0000   0.0000   0.1042
  -9.100  -0.6103   0.01885   0.01331  -0.0826  0.8610  0.0266  -5.3863   0.0000   0.0000   0.0000   0.1019
  -9.000  -0.5999   0.01864   0.01308  -0.0826  0.8594  0.0269  -5.2921   0.0000   0.0000   0.0000   0.0996
  -8.900  -0.5896   0.01844   0.01285  -0.0826  0.8578  0.0272  -5.1990   0.0000   0.0000   0.0000   0.0973
  -8.800  -0.5793   0.01823   0.01261  -0.0825  0.8564  0.0275  -5.1070   0.0000   0.0000   0.0000   0.0949
  -8.700  -0.5689   0.01802   0.01237  -0.0825  0.8550  0.0277  -5.0163   0.0000   0.0000   0.0000   0.0924
  -8.600  -0.5587   0.01781   0.01211  -0.0824  0.8537  0.0280  -4.9267   0.0000   0.0000   0.0000   0.0899
  -8.500  -0.5484   0.01759   0.01185  -0.0823  0.8525  0.0283  -4.8383   0.0000   0.0000   0.0000   0.0873
  -8.400  -0.5380   0.01737   0.01159  -0.0823  0.8513  0.0286  -4.7504   0.0000   0.0000   0.0000   0.0845
  -8.300  -0.5274   0.01713   0.01133  -0.0823  0.8497  0.0288  -4.6625   0.0000   0.0000   0.0000   0.0814
  -8.200  -0.5169   0.01689   0.01106  -0.0822  0.8481  0.0291  -4.5756   0.0000   0.0000   0.0000   0.0783
  -8.100  -0.5064   0.01666   0.01079  -0.0822  0.8465  0.0293  -4.4895   0.0000   0.0000   0.0000   0.0751
  -8.000  -0.4959   0.01643   0.01052  -0.0821  0.8450  0.0296  -4.4073   0.0000   0.0000   0.0000   0.0717
  -7.900  -0.4854   0.01621   0.01025  -0.0821  0.8436  0.0298  -4.3369   0.0000   0.0000   0.0000   0.0683
  -7.800  -0.4749   0.01599   0.00999  -0.0820  0.8423  0.0300  -4.2667   0.0000   0.0000   0.0000   0.0647
  -7.700  -0.4645   0.01578   0.00974  -0.0819  0.8411  0.0302  -4.1968   0.0000   0.0000   0.0000   0.0610
  -7.600  -0.4538   0.01557   0.00950  -0.0819  0.8397  0.0304  -4.1265   0.0000   0.0000   0.0000   0.0569
  -7.500  -0.4430   0.01536   0.00927  -0.0819  0.8380  0.0306  -4.0561   0.0000   0.0000   0.0000   0.0525
  -7.400  -0.4322   0.01516   0.00904  -0.0818  0.8364  0.0308  -3.9859   0.0000   0.0000   0.0000   0.0478
  -7.300  -0.4214   0.01497   0.00881  -0.0818  0.8349  0.0310  -3.9159   0.0000   0.0000   0.0000   0.0430
  -7.200  -0.4106   0.01478   0.00860  -0.0818  0.8335  0.0312  -3.8461   0.0000   0.0000   0.0000   0.0380
  -7.100  -0.3998   0.01461   0.00839  -0.0817  0.8321  0.0313  -3.7765   0.0000   0.0000   0.0000   0.0327
  -7.000  -0.3890   0.01445   0.00819  -0.0816  0.8308  0.0315  -3.7070   0.0000   0.0000   0.0000   0.0271
  -6.900  -0.3782   0.01430   0.00801  -0.0816  0.8296  0.0316  -3.6376   0.0000   0.0000   0.0000   0.0212
  -6.800  -0.3671   0.01415   0.00784  -0.0816  0.8281  0.0317  -3.5677   0.0000   0.0000   0.0000   0.0146
  -6.700  -0.3574   0.01364   0.00730  -0.0815  0.8265  0.0323  -3.5170   0.0000   0.0000   0.0000   0.0087
  -6.600  -0.3471   0.01329   0.00693  -0.0814  0.8248  0.0329  -3.4581   0.0000   0.0000   0.0000   0.0020
  -6.500  -0.3365   0.01304   0.00666  -0.0814  0.8233  0.0335  -3.3942   0.0000   0.0000   0.0000  -0.0054
  -6.400  -0.3257   0.01285   0.00646  -0.0813  0.8219  0.0341  -3.3276   0.0000   0.0000   0.0000  -0.0135
  -6.300  -0.3147   0.01270   0.00630  -0.0813  0.8206  0.0348  -3.2590   0.0000   0.0000   0.0000  -0.0223
  -6.200  -0.3036   0.01258   0.00616  -0.0813  0.8193  0.0355  -3.1900   0.0000   0.0000   0.0000  -0.0318
  -6.100  -0.2926   0.01248   0.00603  -0.0813  0.8182  0.0364  -3.1215   0.0000   0.0000   0.0000  -0.0420
  -6.000  -0.2813   0.01236   0.00591  -0.0813  0.8167  0.0374  -3.0536   0.0000   0.0000   0.0000  -0.0535
  -5.900  -0.2699   0.01226   0.00579  -0.0813  0.8150  0.0383  -2.9864   0.0000   0.0000   0.0000  -0.0660
  -5.800  -0.2585   0.01218   0.00569  -0.0813  0.8134  0.0391  -2.9195   0.0000   0.0000   0.0000  -0.0796
  -5.700  -0.2479   0.01189   0.00539  -0.0813  0.8118  0.0409  -2.8633   0.0000   0.0000   0.0000  -0.0932
  -5.600  -0.2370   0.01169   0.00520  -0.0813  0.8103  0.0426  -2.8005   0.0000   0.0000   0.0000  -0.1085
  -5.500  -0.2258   0.01158   0.00508  -0.0813  0.8089  0.0442  -2.7349   0.0000   0.0000   0.0000  -0.1257
  -5.400  -0.2146   0.01149   0.00497  -0.0812  0.8076  0.0458  -2.6698   0.0000   0.0000   0.0000  -0.1449
  -5.300  -0.2032   0.01143   0.00488  -0.0812  0.8062  0.0471  -2.6046   0.0000   0.0000   0.0000  -0.1665
  -5.200  -0.1921   0.01124   0.00470  -0.0812  0.8044  0.0490  -2.5482   0.0000   0.0000   0.0000  -0.1902
  -5.100  -0.1809   0.01111   0.00459  -0.0813  0.8027  0.0508  -2.4972   0.0000   0.0000   0.0000  -0.2173
  -5.000  -0.1695   0.01102   0.00450  -0.0813  0.8010  0.0525  -2.4452   0.0000   0.0000   0.0000  -0.2482
  -4.900  -0.1581   0.01095   0.00440  -0.0813  0.7995  0.0541  -2.3935   0.0000   0.0000   0.0000  -0.2837
  -4.800  -0.1467   0.01089   0.00432  -0.0813  0.7981  0.0554  -2.3418   0.0000   0.0000   0.0000  -0.3248
  -4.700  -0.1356   0.01073   0.00417  -0.0813  0.7968  0.0576  -2.2929   0.0000   0.0000   0.0000  -0.3711
  -4.600  -0.1244   0.01063   0.00407  -0.0813  0.7956  0.0596  -2.2415   0.0000   0.0000   0.0000  -0.4264
  -4.500  -0.1129   0.01055   0.00399  -0.0813  0.7940  0.0617  -2.1901   0.0000   0.0000   0.0000  -0.4947
  -4.400  -0.1014   0.01048   0.00391  -0.0814  0.7921  0.0636  -2.1390   0.0000   0.0000   0.0000  -0.5789
  -4.300  -0.0902   0.01035   0.00380  -0.0814  0.7904  0.0665  -2.0891   0.0000   0.0000   0.0000  -0.6818
  -4.200  -0.0788   0.01026   0.00372  -0.0814  0.7887  0.0695  -2.0383   0.0000   0.0000   0.0000  -0.8157
  -4.100  -0.0674   0.01018   0.00363  -0.0815  0.7872  0.0727  -1.9881   0.0000   0.0000   0.0000  -0.9953
  -4.000  -0.0561   0.01008   0.00355  -0.0815  0.7858  0.0765  -1.9378   0.0000   0.0000   0.0000  -1.2456
  -3.900  -0.0446   0.01002   0.00348  -0.0815  0.7845  0.0804  -1.8877   0.0000   0.0000   0.0000  -1.6268
  -3.800  -0.0332   0.00993   0.00342  -0.0815  0.7828  0.0849  -1.8377   0.0000   0.0000   0.0000  -2.2693
  -3.700  -0.0217   0.00986   0.00336  -0.0816  0.7808  0.0894  -1.7879   0.0000   0.0000   0.0000  -3.6035
  -3.600  -0.0103   0.00976   0.00329  -0.0816  0.7790  0.0942  -1.7384   0.0000   0.0000   0.0000  -7.8612
  -3.500   0.0011   0.00968   0.00321  -0.0816  0.7772  0.0989  -1.6893   0.0000   0.0000   0.0000  76.4451
  -3.400   0.0125   0.00960   0.00314  -0.0817  0.7755  0.1042  -1.6403   0.0000   0.0000   0.0000   6.9387
  -3.300   0.0238   0.00952   0.00307  -0.0817  0.7740  0.1097  -1.5917   0.0000   0.0000   0.0000   3.7532
  -3.200   0.0352   0.00945   0.00302  -0.0817  0.7725  0.1155  -1.5434   0.0000   0.0000   0.0000   2.6189
  -3.100   0.0468   0.00938   0.00297  -0.0818  0.7703  0.1219  -1.4951   0.0000   0.0000   0.0000   2.0346
  -3.000   0.0583   0.00931   0.00292  -0.0818  0.7683  0.1287  -1.4473   0.0000   0.0000   0.0000   1.6826
  -2.900   0.0697   0.00923   0.00287  -0.0819  0.7663  0.1357  -1.4000   0.0000   0.0000   0.0000   1.4474
  -2.800   0.0811   0.00914   0.00281  -0.0819  0.7646  0.1435  -1.3531   0.0000   0.0000   0.0000   1.2785
  -2.700   0.0925   0.00906   0.00275  -0.0819  0.7630  0.1524  -1.3066   0.0000   0.0000   0.0000   1.1515
  -2.600   0.1039   0.00899   0.00270  -0.0820  0.7615  0.1627  -1.2605   0.0000   0.0000   0.0000   1.0522
  -2.500   0.1153   0.00890   0.00267  -0.0820  0.7594  0.1740  -1.2147   0.0000   0.0000   0.0000   0.9725
  -2.400   0.1268   0.00882   0.00264  -0.0821  0.7573  0.1858  -1.1693   0.0000   0.0000   0.0000   0.9071
  -2.300   0.1382   0.00875   0.00259  -0.0821  0.7552  0.1972  -1.1243   0.0000   0.0000   0.0000   0.8525
  -2.200   0.1497   0.00867   0.00255  -0.0822  0.7534  0.2084  -1.0798   0.0000   0.0000   0.0000   0.8063
  -2.100   0.1611   0.00860   0.00250  -0.0822  0.7517  0.2205  -1.0357   0.0000   0.0000   0.0000   0.7666
  -2.000   0.1725   0.00853   0.00246  -0.0823  0.7498  0.2330  -0.9920   0.0000   0.0000   0.0000   0.7323
  -1.900   0.1840   0.00845   0.00244  -0.0823  0.7473  0.2465  -0.9487   0.0000   0.0000   0.0000   0.7022
  -1.800   0.1954   0.00837   0.00240  -0.0824  0.7450  0.2600  -0.9058   0.0000   0.0000   0.0000   0.6756
  -1.700   0.2068   0.00829   0.00236  -0.0824  0.7428  0.2745  -0.8634   0.0000   0.0000   0.0000   0.6520
  -1.600   0.2182   0.00821   0.00232  -0.0825  0.7409  0.2909  -0.8215   0.0000   0.0000   0.0000   0.6309
  -1.500   0.2295   0.00813   0.00229  -0.0825  0.7390  0.3101  -0.7801   0.0000   0.0000   0.0000   0.6119
  -1.400   0.2409   0.00803   0.00227  -0.0826  0.7365  0.3307  -0.7494   0.0000   0.0000   0.0000   0.5948
  -1.300   0.2523   0.00794   0.00225  -0.0826  0.7341  0.3523  -0.7204   0.0000   0.0000   0.0000   0.5792
  -1.200   0.2636   0.00784   0.00222  -0.0827  0.7320  0.3765  -0.6918   0.0000   0.0000   0.0000   0.5650
  -1.100   0.2748   0.00773   0.00219  -0.0827  0.7300  0.4049  -0.6635   0.0000   0.0000   0.0000   0.5520
  -1.000   0.2860   0.00761   0.00217  -0.0827  0.7280  0.4374  -0.6412   0.0000   0.0000   0.0000   0.5400
  -0.900   0.2971   0.00748   0.00217  -0.0828  0.7253  0.4723  -0.6490   0.0000   0.0000   0.0000   0.5290
  -0.800   0.3082   0.00736   0.00216  -0.0828  0.7227  0.5089  -0.6569   0.0000   0.0000   0.0000   0.5187
  -0.700   0.3193   0.00725   0.00215  -0.0828  0.7203  0.5431  -0.6648   0.0000   0.0000   0.0000   0.5091
  -0.600   0.3303   0.00716   0.00213  -0.0827  0.7182  0.5760  -0.6729   0.0000   0.0000   0.0000   0.5001
  -0.500   0.3413   0.00706   0.00214  -0.0827  0.7156  0.6073  -0.6817   0.0000   0.0000   0.0000   0.4916
  -0.400   0.3523   0.00697   0.00216  -0.0826  0.7128  0.6385  -0.6906   0.0000   0.0000   0.0000   0.4837
  -0.300   0.3633   0.00690   0.00216  -0.0825  0.7103  0.6661  -0.6995   0.0000   0.0000   0.0000   0.4761
  -0.200   0.3743   0.00685   0.00216  -0.0824  0.7080  0.6896  -0.7084   0.0000   0.0000   0.0000   0.4690
  -0.100   0.3854   0.00681   0.00217  -0.0823  0.7054  0.7092  -0.7186   0.0000   0.0000   0.0000   0.4622
   0.000   0.3964   0.00676   0.00218  -0.0822  0.7021  0.7279  -0.7290   0.0000   0.0000   0.0000   0.4559
   0.100   0.4074   0.00672   0.00218  -0.0821  0.6991  0.7461  -0.7395   0.0000   0.0000   0.0000   0.4498
   0.200   0.4183   0.00670   0.00217  -0.0819  0.6964  0.7623  -0.7499   0.0000   0.0000   0.0000   0.4440
   0.300   0.4293   0.00666   0.00218  -0.0818  0.6930  0.7770  -0.7604   0.0000   0.0000   0.0000   0.4386
   0.400   0.4402   0.00663   0.00219  -0.0817  0.6895  0.7909  -0.7708   0.0000   0.0000   0.0000   0.4334
   0.500   0.4511   0.00662   0.00218  -0.0815  0.6865  0.8045  -0.7813   0.0000   0.0000   0.0000   0.4284
   0.600   0.4618   0.00659   0.00219  -0.0813  0.6830  0.8179  -0.7917   0.0000   0.0000   0.0000   0.4237
   0.700   0.4726   0.00657   0.00220  -0.0811  0.6793  0.8310  -0.8021   0.0000   0.0000   0.0000   0.4191
   0.800   0.4831   0.00656   0.00220  -0.0809  0.6760  0.8443  -0.8125   0.0000   0.0000   0.0000   0.4147
   0.900   0.4935   0.00654   0.00221  -0.0806  0.6725  0.8570  -0.8227   0.0000   0.0000   0.0000   0.4105
   1.000   0.5039   0.00653   0.00222  -0.0803  0.6687  0.8703  -0.8330   0.0000   0.0000   0.0000   0.4065
   1.100   0.5140   0.00652   0.00223  -0.0799  0.6654  0.8841  -0.8437   0.0000   0.0000   0.0000   0.4025
   1.200   0.5239   0.00651   0.00224  -0.0795  0.6623  0.8979  -0.8544   0.0000   0.0000   0.0000   0.3986
   1.400   0.5437   0.00649   0.00226  -0.0787  0.6551  0.9269  -0.8760   0.0000   0.0000   0.0000   0.3913
   1.500   0.5545   0.00649   0.00226  -0.0785  0.6518  0.9413  -0.8873   0.0000   0.0000   0.0000   0.3879
   1.600   0.5669   0.00648   0.00226  -0.0786  0.6477  0.9552  -0.8997   0.0000   0.0000   0.0000   0.3850
   1.700   0.5812   0.00649   0.00226  -0.0792  0.6439  0.9673  -0.9157   0.0000   0.0000   0.0000   0.3825
   1.800   0.5965   0.00651   0.00225  -0.0800  0.6398  0.9778  -0.9324   0.0000   0.0000   0.0000   0.3803
   1.900   0.6122   0.00652   0.00225  -0.0810  0.6352  0.9866  -0.9496   0.0000   0.0000   0.0000   0.3783
   2.000   0.6282   0.00655   0.00225  -0.0820  0.6309  0.9946  -0.9676   0.0000   0.0000   0.0000   0.3765
   2.100   0.6431   0.00657   0.00226  -0.0828  0.6258  1.0000  -0.9848   0.0000   0.0000   0.0000   0.3746
   2.200   0.6537   0.00661   0.00226  -0.0827  0.6213  1.0000  -0.9991   0.0000   0.0000   0.0000   0.3722
   2.300   0.6647   0.00664   0.00228  -0.0827  0.6163  1.0000  -1.0140   0.0000   0.0000   0.0000   0.3700
   2.400   0.6755   0.00669   0.00229  -0.0826  0.6113  1.0000  -1.0289   0.0000   0.0000   0.0000   0.3678
   2.500   0.6864   0.00673   0.00231  -0.0826  0.6061  1.0000  -1.0438   0.0000   0.0000   0.0000   0.3657
   2.600   0.6972   0.00678   0.00233  -0.0825  0.6008  1.0000  -1.0588   0.0000   0.0000   0.0000   0.3636
   2.700   0.7081   0.00682   0.00235  -0.0825  0.5955  1.0000  -1.0739   0.0000   0.0000   0.0000   0.3616
   2.800   0.7190   0.00688   0.00237  -0.0825  0.5902  1.0000  -1.0890   0.0000   0.0000   0.0000   0.3597
   2.900   0.7299   0.00693   0.00240  -0.0824  0.5850  1.0000  -1.1047   0.0000   0.0000   0.0000   0.3578
   3.000   0.7408   0.00698   0.00243  -0.0824  0.5797  1.0000  -1.1211   0.0000   0.0000   0.0000   0.3560
   3.100   0.7517   0.00704   0.00246  -0.0823  0.5747  1.0000  -1.1375   0.0000   0.0000   0.0000   0.3542
   3.200   0.7627   0.00709   0.00249  -0.0823  0.5693  1.0000  -1.1540   0.0000   0.0000   0.0000   0.3525
   3.300   0.7736   0.00715   0.00252  -0.0823  0.5642  1.0000  -1.1704   0.0000   0.0000   0.0000   0.3508
   3.400   0.7845   0.00721   0.00258  -0.0822  0.5586  1.0000  -1.1881   0.0000   0.0000   0.0000   0.3492
   3.500   0.7953   0.00728   0.00261  -0.0822  0.5533  1.0000  -1.2065   0.0000   0.0000   0.0000   0.3476
   3.600   0.8062   0.00734   0.00265  -0.0821  0.5476  1.0000  -1.2251   0.0000   0.0000   0.0000   0.3461
   3.700   0.8170   0.00741   0.00270  -0.0821  0.5423  1.0000  -1.2436   0.0000   0.0000   0.0000   0.3445
   3.800   0.8278   0.00748   0.00274  -0.0820  0.5366  1.0000  -1.2623   0.0000   0.0000   0.0000   0.3431
   3.900   0.8386   0.00755   0.00279  -0.0820  0.5310  1.0000  -1.2810   0.0000   0.0000   0.0000   0.3416
   4.000   0.8493   0.00763   0.00283  -0.0819  0.5251  1.0000  -1.2997   0.0000   0.0000   0.0000   0.3402
   4.100   0.8601   0.00770   0.00288  -0.0819  0.5193  1.0000  -1.3185   0.0000   0.0000   0.0000   0.3388
   4.200   0.8707   0.00779   0.00294  -0.0818  0.5132  1.0000  -1.3399   0.0000   0.0000   0.0000   0.3375
   4.300   0.8815   0.00786   0.00299  -0.0818  0.5066  1.0000  -1.3618   0.0000   0.0000   0.0000   0.3362
   4.400   0.8919   0.00796   0.00305  -0.0817  0.5002  1.0000  -1.3834   0.0000   0.0000   0.0000   0.3348
   4.500   0.9026   0.00803   0.00311  -0.0816  0.4934  1.0000  -1.4054   0.0000   0.0000   0.0000   0.3336
   4.600   0.9132   0.00812   0.00317  -0.0815  0.4869  1.0000  -1.4273   0.0000   0.0000   0.0000   0.3323
   4.700   0.9237   0.00822   0.00323  -0.0814  0.4803  1.0000  -1.4510   0.0000   0.0000   0.0000   0.3311
   4.800   0.9343   0.00830   0.00329  -0.0814  0.4736  1.0000  -1.4756   0.0000   0.0000   0.0000   0.3299
   4.900   0.9447   0.00841   0.00336  -0.0813  0.4674  1.0000  -1.4999   0.0000   0.0000   0.0000   0.3288
   5.000   0.9552   0.00850   0.00343  -0.0812  0.4608  1.0000  -1.5246   0.0000   0.0000   0.0000   0.3276
   5.100   0.9657   0.00860   0.00350  -0.0811  0.4545  1.0000  -1.5492   0.0000   0.0000   0.0000   0.3265
   5.200   0.9760   0.00870   0.00360  -0.0810  0.4476  1.0000  -1.5738   0.0000   0.0000   0.0000   0.3254
   5.300   0.9864   0.00880   0.00368  -0.0809  0.4406  1.0000  -1.5995   0.0000   0.0000   0.0000   0.3243
   5.400   0.9966   0.00892   0.00376  -0.0808  0.4337  1.0000  -1.6258   0.0000   0.0000   0.0000   0.3232
   5.500   1.0068   0.00903   0.00384  -0.0807  0.4263  1.0000  -1.6523   0.0000   0.0000   0.0000   0.3222
   5.600   1.0171   0.00913   0.00392  -0.0806  0.4190  1.0000  -1.6790   0.0000   0.0000   0.0000   0.3211
   5.700   1.0272   0.00926   0.00401  -0.0805  0.4121  1.0000  -1.7056   0.0000   0.0000   0.0000   0.3201
   5.800   1.0373   0.00938   0.00410  -0.0803  0.4048  1.0000  -1.7331   0.0000   0.0000   0.0000   0.3191
   5.900   1.0474   0.00949   0.00419  -0.0802  0.3975  1.0000  -1.7647   0.0000   0.0000   0.0000   0.3181
   6.000   1.0573   0.00963   0.00429  -0.0801  0.3902  1.0000  -1.7961   0.0000   0.0000   0.0000   0.3171
   6.100   1.0672   0.00976   0.00439  -0.0799  0.3825  1.0000  -1.8276   0.0000   0.0000   0.0000   0.3161
   6.200   1.0772   0.00989   0.00448  -0.0798  0.3749  1.0000  -1.8595   0.0000   0.0000   0.0000   0.3152
   6.300   1.0870   0.01003   0.00459  -0.0796  0.3675  1.0000  -1.8912   0.0000   0.0000   0.0000   0.3142
   6.400   1.0966   0.01017   0.00470  -0.0794  0.3601  1.0000  -1.9228   0.0000   0.0000   0.0000   0.3133
   6.500   1.1066   0.01030   0.00480  -0.0793  0.3527  1.0000  -1.9618   0.0000   0.0000   0.0000   0.3124
   6.600   1.1163   0.01044   0.00491  -0.0791  0.3458  1.0000  -2.0035   0.0000   0.0000   0.0000   0.3115
   6.700   1.1257   0.01060   0.00503  -0.0789  0.3388  1.0000  -2.0448   0.0000   0.0000   0.0000   0.3106
   6.800   1.1355   0.01074   0.00514  -0.0787  0.3310  1.0000  -2.0872   0.0000   0.0000   0.0000   0.3097
   6.900   1.1449   0.01089   0.00526  -0.0785  0.3233  1.0000  -2.1291   0.0000   0.0000   0.0000   0.3088
   7.000   1.1542   0.01106   0.00540  -0.0783  0.3159  1.0000  -2.1708   0.0000   0.0000   0.0000   0.3079
   7.100   1.1634   0.01123   0.00552  -0.0780  0.3081  1.0000  -2.2130   0.0000   0.0000   0.0000   0.3071
   7.200   1.1728   0.01139   0.00568  -0.0778  0.3004  1.0000  -2.2600   0.0000   0.0000   0.0000   0.3062
   7.300   1.1820   0.01156   0.00582  -0.0776  0.2930  1.0000  -2.3086   0.0000   0.0000   0.0000   0.3054
   7.400   1.1909   0.01174   0.00596  -0.0773  0.2855  1.0000  -2.3570   0.0000   0.0000   0.0000   0.3045
   7.500   1.2000   0.01191   0.00610  -0.0771  0.2780  1.0000  -2.4062   0.0000   0.0000   0.0000   0.3037
   7.600   1.2090   0.01209   0.00625  -0.0768  0.2708  1.0000  -2.4554   0.0000   0.0000   0.0000   0.3028
   7.700   1.2177   0.01228   0.00640  -0.0765  0.2638  1.0000  -2.5042   0.0000   0.0000   0.0000   0.3020
   7.800   1.2265   0.01247   0.00655  -0.0762  0.2568  1.0000  -2.5534   0.0000   0.0000   0.0000   0.3012
   7.900   1.2354   0.01265   0.00671  -0.0759  0.2501  1.0000  -2.6033   0.0000   0.0000   0.0000   0.3004
   8.000   1.2439   0.01284   0.00687  -0.0756  0.2438  1.0000  -2.6524   0.0000   0.0000   0.0000   0.2995
   8.100   1.2526   0.01302   0.00702  -0.0753  0.2375  1.0000  -2.7026   0.0000   0.0000   0.0000   0.2987
   8.200   1.2611   0.01321   0.00719  -0.0750  0.2316  1.0000  -2.7525   0.0000   0.0000   0.0000   0.2979
   8.300   1.2693   0.01343   0.00737  -0.0746  0.2254  1.0000  -2.8016   0.0000   0.0000   0.0000   0.2971
   8.400   1.2778   0.01361   0.00753  -0.0743  0.2190  1.0000  -2.8520   0.0000   0.0000   0.0000   0.2963
   8.500   1.2857   0.01383   0.00771  -0.0739  0.2127  1.0000  -2.9013   0.0000   0.0000   0.0000   0.2955
   8.600   1.2937   0.01405   0.00790  -0.0735  0.2061  1.0000  -2.9508   0.0000   0.0000   0.0000   0.2947
   8.700   1.3018   0.01425   0.00807  -0.0731  0.1997  1.0000  -3.0010   0.0000   0.0000   0.0000   0.2939
   8.800   1.3094   0.01448   0.00827  -0.0727  0.1936  1.0000  -3.0501   0.0000   0.0000   0.0000   0.2931
   8.900   1.3170   0.01470   0.00846  -0.0723  0.1877  1.0000  -3.0996   0.0000   0.0000   0.0000   0.2923
   9.000   1.3246   0.01491   0.00865  -0.0718  0.1824  1.0000  -3.1494   0.0000   0.0000   0.0000   0.2915
   9.100   1.3314   0.01515   0.00886  -0.0712  0.1770  1.0000  -3.1970   0.0000   0.0000   0.0000   0.2907
   9.200   1.3383   0.01536   0.00908  -0.0707  0.1720  1.0000  -3.2454   0.0000   0.0000   0.0000   0.2898
   9.400   1.3514   0.01583   0.00951  -0.0695  0.1624  1.0000  -3.3407   0.0000   0.0000   0.0000   0.2881
   9.500   1.3574   0.01611   0.00976  -0.0688  0.1580  1.0000  -3.3868   0.0000   0.0000   0.0000   0.2872
   9.600   1.3643   0.01634   0.00998  -0.0683  0.1536  1.0000  -3.4361   0.0000   0.0000   0.0000   0.2865
   9.700   1.3702   0.01663   0.01025  -0.0677  0.1496  1.0000  -3.4825   0.0000   0.0000   0.0000   0.2856
   9.800   1.3772   0.01686   0.01048  -0.0672  0.1456  1.0000  -3.5321   0.0000   0.0000   0.0000   0.2849
   9.900   1.3833   0.01715   0.01075  -0.0666  0.1416  1.0000  -3.5795   0.0000   0.0000   0.0000   0.2841
  10.000   1.3899   0.01741   0.01100  -0.0661  0.1378  1.0000  -3.6284   0.0000   0.0000   0.0000   0.2833
  10.100   1.3961   0.01770   0.01128  -0.0656  0.1339  1.0000  -3.6765   0.0000   0.0000   0.0000   0.2826
  10.200   1.4022   0.01799   0.01156  -0.0651  0.1302  1.0000  -3.7246   0.0000   0.0000   0.0000   0.2818
  10.300   1.4085   0.01828   0.01184  -0.0645  0.1264  1.0000  -3.7730   0.0000   0.0000   0.0000   0.2811
  10.400   1.4142   0.01861   0.01215  -0.0640  0.1229  1.0000  -3.8203   0.0000   0.0000   0.0000   0.2803
  10.500   1.4205   0.01890   0.01244  -0.0635  0.1192  1.0000  -3.8692   0.0000   0.0000   0.0000   0.2796
  10.600   1.4258   0.01926   0.01278  -0.0629  0.1158  1.0000  -3.9154   0.0000   0.0000   0.0000   0.2789
  10.700   1.4320   0.01956   0.01308  -0.0624  0.1123  1.0000  -3.9646   0.0000   0.0000   0.0000   0.2782
  10.800   1.4371   0.01994   0.01344  -0.0619  0.1091  1.0000  -4.0105   0.0000   0.0000   0.0000   0.2775
  10.900   1.4431   0.02027   0.01377  -0.0614  0.1059  1.0000  -4.0592   0.0000   0.0000   0.0000   0.2768
  11.000   1.4484   0.02064   0.01413  -0.0609  0.1027  1.0000  -4.1059   0.0000   0.0000   0.0000   0.2761
  11.100   1.4537   0.02102   0.01450  -0.0603  0.0998  1.0000  -4.1528   0.0000   0.0000   0.0000   0.2754
  11.200   1.4591   0.02139   0.01489  -0.0598  0.0968  1.0000  -4.2000   0.0000   0.0000   0.0000   0.2747
  11.300   1.4637   0.02183   0.01531  -0.0592  0.0942  1.0000  -4.2448   0.0000   0.0000   0.0000   0.2740
  11.400   1.4693   0.02219   0.01567  -0.0588  0.0914  1.0000  -4.2932   0.0000   0.0000   0.0000   0.2734
  11.500   1.4738   0.02263   0.01610  -0.0582  0.0888  1.0000  -4.3382   0.0000   0.0000   0.0000   0.2727
  11.600   1.4791   0.02302   0.01650  -0.0577  0.0862  1.0000  -4.3854   0.0000   0.0000   0.0000   0.2721
  11.700   1.4840   0.02344   0.01692  -0.0572  0.0836  1.0000  -4.4319   0.0000   0.0000   0.0000   0.2714
  11.800   1.4883   0.02391   0.01738  -0.0567  0.0812  1.0000  -4.4764   0.0000   0.0000   0.0000   0.2707
  11.900   1.4934   0.02432   0.01780  -0.0562  0.0788  1.0000  -4.5233   0.0000   0.0000   0.0000   0.2701
  12.000   1.4973   0.02482   0.01829  -0.0556  0.0765  1.0000  -4.5670   0.0000   0.0000   0.0000   0.2695
  12.100   1.5021   0.02526   0.01874  -0.0551  0.0743  1.0000  -4.6154   0.0000   0.0000   0.0000   0.2688
  12.200   1.5063   0.02574   0.01922  -0.0546  0.0721  1.0000  -4.6636   0.0000   0.0000   0.0000   0.2682
  12.300   1.5099   0.02628   0.01975  -0.0541  0.0701  1.0000  -4.7096   0.0000   0.0000   0.0000   0.2676
  12.400   1.5146   0.02673   0.02022  -0.0536  0.0680  1.0000  -4.7593   0.0000   0.0000   0.0000   0.2670
  12.500   1.5181   0.02728   0.02077  -0.0531  0.0660  1.0000  -4.8051   0.0000   0.0000   0.0000   0.2663
  12.600   1.5221   0.02780   0.02129  -0.0526  0.0642  1.0000  -4.8525   0.0000   0.0000   0.0000   0.2657
  12.700   1.5259   0.02833   0.02183  -0.0521  0.0623  1.0000  -4.8997   0.0000   0.0000   0.0000   0.2651
  12.900   1.5328   0.02947   0.02298  -0.0511  0.0589  1.0000  -4.9910   0.0000   0.0000   0.0000   0.2639
  13.000   1.5359   0.03006   0.02358  -0.0506  0.0573  1.0000  -5.0358   0.0000   0.0000   0.0000   0.2633
  13.100   1.5382   0.03074   0.02425  -0.0500  0.0559  1.0000  -5.0772   0.0000   0.0000   0.0000   0.2627
  13.200   1.5420   0.03128   0.02483  -0.0496  0.0544  1.0000  -5.1243   0.0000   0.0000   0.0000   0.2622
  13.300   1.5448   0.03193   0.02548  -0.0491  0.0530  1.0000  -5.1677   0.0000   0.0000   0.0000   0.2616
  13.500   1.5501   0.03324   0.02683  -0.0481  0.0504  1.0000  -5.2536   0.0000   0.0000   0.0000   0.2605
  13.600   1.5526   0.03392   0.02751  -0.0477  0.0492  1.0000  -5.2962   0.0000   0.0000   0.0000   0.2599
  13.700   1.5542   0.03468   0.02828  -0.0472  0.0482  1.0000  -5.3355   0.0000   0.0000   0.0000   0.2594
  13.800   1.5568   0.03537   0.02899  -0.0467  0.0471  1.0000  -5.3776   0.0000   0.0000   0.0000   0.2588
  13.900   1.5593   0.03606   0.02970  -0.0463  0.0460  1.0000  -5.4201   0.0000   0.0000   0.0000   0.2583
  14.000   1.5610   0.03683   0.03049  -0.0459  0.0451  1.0000  -5.4594   0.0000   0.0000   0.0000   0.2578
  14.100   1.5616   0.03771   0.03137  -0.0454  0.0443  1.0000  -5.4949   0.0000   0.0000   0.0000   0.2573
  14.200   1.5640   0.03843   0.03212  -0.0450  0.0434  1.0000  -5.5363   0.0000   0.0000   0.0000   0.2568
  14.300   1.5661   0.03919   0.03291  -0.0446  0.0425  1.0000  -5.5767   0.0000   0.0000   0.0000   0.2563
  14.400   1.5673   0.04003   0.03377  -0.0442  0.0417  1.0000  -5.6142   0.0000   0.0000   0.0000   0.2558
  14.500   1.5677   0.04097   0.03471  -0.0438  0.0411  1.0000  -5.6499   0.0000   0.0000   0.0000   0.2553
  14.600   1.5683   0.04190   0.03567  -0.0434  0.0404  1.0000  -5.6876   0.0000   0.0000   0.0000   0.2548
  14.700   1.5704   0.04270   0.03650  -0.0431  0.0397  1.0000  -5.7312   0.0000   0.0000   0.0000   0.2544
  14.800   1.5718   0.04358   0.03741  -0.0428  0.0390  1.0000  -5.7723   0.0000   0.0000   0.0000   0.2540
  14.900   1.5726   0.04454   0.03839  -0.0426  0.0385  1.0000  -5.8110   0.0000   0.0000   0.0000   0.2536
  15.000   1.5725   0.04559   0.03946  -0.0423  0.0380  1.0000  -5.8462   0.0000   0.0000   0.0000   0.2532
  15.100   1.5713   0.04678   0.04066  -0.0420  0.0375  1.0000  -5.8759   0.0000   0.0000   0.0000   0.2528
  15.200   1.5731   0.04767   0.04159  -0.0418  0.0369  1.0000  -5.9180   0.0000   0.0000   0.0000   0.2524
  15.300   1.5741   0.04865   0.04260  -0.0416  0.0364  1.0000  -5.9574   0.0000   0.0000   0.0000   0.2520
  15.400   1.5748   0.04967   0.04366  -0.0414  0.0359  1.0000  -5.9954   0.0000   0.0000   0.0000   0.2517
  15.500   1.5748   0.05079   0.04481  -0.0412  0.0354  1.0000  -6.0305   0.0000   0.0000   0.0000   0.2513
  15.600   1.5741   0.05200   0.04603  -0.0411  0.0351  1.0000  -6.0623   0.0000   0.0000   0.0000   0.2510
  15.700   1.5723   0.05334   0.04739  -0.0409  0.0347  1.0000  -6.0889   0.0000   0.0000   0.0000   0.2507
  15.800   1.5713   0.05460   0.04868  -0.0408  0.0343  1.0000  -6.1186   0.0000   0.0000   0.0000   0.2505
  15.900   1.5723   0.05565   0.04977  -0.0408  0.0339  1.0000  -6.1571   0.0000   0.0000   0.0000   0.2502
  16.000   1.5726   0.05679   0.05096  -0.0407  0.0335  1.0000  -6.1923   0.0000   0.0000   0.0000   0.2499
  16.100   1.5725   0.05799   0.05219  -0.0407  0.0331  1.0000  -6.2261   0.0000   0.0000   0.0000   0.2496
  16.200   1.5720   0.05925   0.05348  -0.0406  0.0327  1.0000  -6.2581   0.0000   0.0000   0.0000   0.2494
  16.300   1.5710   0.06058   0.05484  -0.0406  0.0324  1.0000  -6.2875   0.0000   0.0000   0.0000   0.2492
  16.400   1.5692   0.06201   0.05630  -0.0407  0.0322  1.0000  -6.3205   0.0000   0.0000   0.0000   0.2490
  16.500   1.5666   0.06357   0.05788  -0.0408  0.0319  1.0000  -6.3539   0.0000   0.0000   0.0000   0.2489
  16.600   1.5630   0.06526   0.05959  -0.0409  0.0317  1.0000  -6.3813   0.0000   0.0000   0.0000   0.2488
  16.700   1.5628   0.06654   0.06092  -0.0409  0.0314  1.0000  -6.4283   0.0000   0.0000   0.0000   0.2486
  16.800   1.5622   0.06789   0.06231  -0.0410  0.0311  1.0000  -6.4728   0.0000   0.0000   0.0000   0.2484
  16.900   1.5612   0.06929   0.06376  -0.0412  0.0309  1.0000  -6.5152   0.0000   0.0000   0.0000   0.2483
  17.000   1.5598   0.07073   0.06524  -0.0413  0.0306  1.0000  -6.5557   0.0000   0.0000   0.0000   0.2481
  17.100   1.5582   0.07224   0.06678  -0.0415  0.0304  1.0000  -6.5942   0.0000   0.0000   0.0000   0.2481
  17.200   1.5565   0.07377   0.06834  -0.0417  0.0301  1.0000  -6.6319   0.0000   0.0000   0.0000   0.2480
  17.300   1.5545   0.07534   0.06995  -0.0419  0.0299  1.0000  -6.6678   0.0000   0.0000   0.0000   0.2479
  17.400   1.5521   0.07697   0.07161  -0.0422  0.0297  1.0000  -6.7017   0.0000   0.0000   0.0000   0.2479
  17.500   1.5494   0.07866   0.07333  -0.0425  0.0296  1.0000  -6.7323   0.0000   0.0000   0.0000   0.2479
  17.600   1.5460   0.08044   0.07514  -0.0428  0.0294  1.0000  -6.7589   0.0000   0.0000   0.0000   0.2479
  17.700   1.5422   0.08230   0.07702  -0.0432  0.0292  1.0000  -6.7821   0.0000   0.0000   0.0000   0.2480
  17.800   1.5379   0.08422   0.07897  -0.0436  0.0291  1.0000  -6.8016   0.0000   0.0000   0.0000   0.2481
  17.900   1.5359   0.08585   0.08065  -0.0439  0.0289  1.0000  -6.8359   0.0000   0.0000   0.0000   0.2481
  18.000   1.5344   0.08743   0.08228  -0.0443  0.0287  1.0000  -6.8725   0.0000   0.0000   0.0000   0.2481
  18.100   1.5325   0.08906   0.08395  -0.0446  0.0285  1.0000  -6.9069   0.0000   0.0000   0.0000   0.2481
  18.200   1.5303   0.09074   0.08567  -0.0450  0.0284  1.0000  -6.9393   0.0000   0.0000   0.0000   0.2482
  18.300   1.5281   0.09242   0.08740  -0.0455  0.0282  1.0000  -6.9713   0.0000   0.0000   0.0000   0.2482
  18.400   1.5258   0.09414   0.08916  -0.0459  0.0280  1.0000  -7.0019   0.0000   0.0000   0.0000   0.2483
  18.500   1.5235   0.09586   0.09092  -0.0464  0.0278  1.0000  -7.0328   0.0000   0.0000   0.0000   0.2484
  18.600   1.5210   0.09760   0.09269  -0.0469  0.0277  1.0000  -7.0626   0.0000   0.0000   0.0000   0.2486
  18.700   1.5187   0.09935   0.09447  -0.0474  0.0275  1.0000  -7.0925   0.0000   0.0000   0.0000   0.2487
  18.800   1.5162   0.10110   0.09625  -0.0479  0.0274  1.0000  -7.1217   0.0000   0.0000   0.0000   0.2489
  18.900   1.5137   0.10287   0.09805  -0.0485  0.0272  1.0000  -7.1502   0.0000   0.0000   0.0000   0.2490
  19.000   1.5112   0.10463   0.09984  -0.0490  0.0271  1.0000  -7.1784   0.0000   0.0000   0.0000   0.2492
  19.100   1.5085   0.10643   0.10166  -0.0496  0.0269  1.0000  -7.2053   0.0000   0.0000   0.0000   0.2494
  19.200   1.5058   0.10822   0.10347  -0.0503  0.0268  1.0000  -7.2314   0.0000   0.0000   0.0000   0.2496
  19.300   1.5029   0.11003   0.10529  -0.0509  0.0267  1.0000  -7.2559   0.0000   0.0000   0.0000   0.2498
  19.400   1.5007   0.11176   0.10705  -0.0515  0.0265  1.0000  -7.2845   0.0000   0.0000   0.0000   0.2500
  19.500   1.4992   0.11345   0.10879  -0.0521  0.0264  1.0000  -7.3165   0.0000   0.0000   0.0000   0.2503
  19.600   1.4976   0.11513   0.11052  -0.0528  0.0262  1.0000  -7.3482   0.0000   0.0000   0.0000   0.2505
  19.700   1.4960   0.11682   0.11225  -0.0535  0.0260  1.0000  -7.3797   0.0000   0.0000   0.0000   0.2507
  19.800   1.4944   0.11850   0.11397  -0.0542  0.0259  1.0000  -7.4110   0.0000   0.0000   0.0000   0.2510
  19.900   1.4929   0.12017   0.11567  -0.0549  0.0257  1.0000  -7.4432   0.0000   0.0000   0.0000   0.2512
  20.000   1.4914   0.12184   0.11738  -0.0556  0.0256  1.0000  -7.4747   0.0000   0.0000   0.0000   0.2515


