xflr5 v6.57

 Calculated polar for: QX0123

 1 1 Reynolds number fixed          Mach number fixed         

 xtrf =   1.000 (top)        1.000 (bottom)
 Mach =   0.000     Re =     0.880 e 6     Ncrit =   9.000

  alpha     CL        CD       CDp       Cm    Top Xtr Bot Xtr   Cpmin    Chinge    XCp    
 ------- -------- --------- --------- -------- ------- ------- -------- --------- ---------
 -10.000  -0.7209   0.01751   0.01238  -0.0801  0.8503  0.0210  -6.4723   0.0000   0.0000   0.0000   0.1258
  -9.900  -0.7103   0.01737   0.01222  -0.0801  0.8488  0.0213  -6.3662   0.0000   0.0000   0.0000   0.1242
  -9.800  -0.6995   0.01723   0.01207  -0.0801  0.8474  0.0217  -6.2603   0.0000   0.0000   0.0000   0.1225
  -9.700  -0.6888   0.01711   0.01192  -0.0801  0.8460  0.0220  -6.1550   0.0000   0.0000   0.0000   0.1208
  -9.600  -0.6781   0.01698   0.01178  -0.0801  0.8447  0.0223  -6.0506   0.0000   0.0000   0.0000   0.1190
  -9.500  -0.6674   0.01686   0.01162  -0.0801  0.8435  0.0226  -5.9472   0.0000   0.0000   0.0000   0.1172
  -9.400  -0.6567   0.01673   0.01147  -0.0801  0.8423  0.0229  -5.8449   0.0000   0.0000   0.0000   0.1153
  -9.300  -0.6460   0.01661   0.01131  -0.0801  0.8411  0.0231  -5.7440   0.0000   0.0000   0.0000   0.1134
  -9.200  -0.6353   0.01646   0.01113  -0.0800  0.8399  0.0233  -5.6445   0.0000   0.0000   0.0000   0.1114
  -9.100  -0.6245   0.01630   0.01095  -0.0801  0.8385  0.0235  -5.5454   0.0000   0.0000   0.0000   0.1092
  -9.000  -0.6137   0.01615   0.01078  -0.0801  0.8371  0.0237  -5.4467   0.0000   0.0000   0.0000   0.1070
  -8.900  -0.6029   0.01600   0.01060  -0.0801  0.8358  0.0238  -5.3484   0.0000   0.0000   0.0000   0.1047
  -8.800  -0.5920   0.01586   0.01044  -0.0801  0.8344  0.0239  -5.2507   0.0000   0.0000   0.0000   0.1023
  -8.700  -0.5812   0.01572   0.01027  -0.0800  0.8331  0.0240  -5.1536   0.0000   0.0000   0.0000   0.0998
  -8.600  -0.5704   0.01559   0.01011  -0.0800  0.8319  0.0241  -5.0571   0.0000   0.0000   0.0000   0.0972
  -8.500  -0.5595   0.01546   0.00995  -0.0800  0.8307  0.0241  -4.9614   0.0000   0.0000   0.0000   0.0946
  -8.400  -0.5487   0.01534   0.00979  -0.0800  0.8295  0.0242  -4.8665   0.0000   0.0000   0.0000   0.0919
  -8.300  -0.5395   0.01477   0.00917  -0.0799  0.8280  0.0245  -4.7941   0.0000   0.0000   0.0000   0.0895
  -8.200  -0.5297   0.01432   0.00866  -0.0798  0.8265  0.0248  -4.7167   0.0000   0.0000   0.0000   0.0870
  -8.100  -0.5196   0.01396   0.00826  -0.0797  0.8250  0.0250  -4.6382   0.0000   0.0000   0.0000   0.0842
  -8.000  -0.5093   0.01367   0.00793  -0.0797  0.8235  0.0253  -4.5687   0.0000   0.0000   0.0000   0.0811
  -7.900  -0.4988   0.01341   0.00765  -0.0796  0.8221  0.0255  -4.4971   0.0000   0.0000   0.0000   0.0779
  -7.800  -0.4881   0.01319   0.00740  -0.0796  0.8208  0.0258  -4.4242   0.0000   0.0000   0.0000   0.0745
  -7.700  -0.4774   0.01299   0.00717  -0.0796  0.8196  0.0260  -4.3504   0.0000   0.0000   0.0000   0.0709
  -7.600  -0.4666   0.01282   0.00697  -0.0795  0.8184  0.0263  -4.2761   0.0000   0.0000   0.0000   0.0671
  -7.500  -0.4557   0.01265   0.00678  -0.0795  0.8171  0.0265  -4.2011   0.0000   0.0000   0.0000   0.0630
  -7.400  -0.4446   0.01248   0.00660  -0.0795  0.8156  0.0267  -4.1259   0.0000   0.0000   0.0000   0.0586
  -7.300  -0.4336   0.01233   0.00644  -0.0795  0.8141  0.0270  -4.0507   0.0000   0.0000   0.0000   0.0540
  -7.200  -0.4225   0.01218   0.00627  -0.0796  0.8127  0.0272  -3.9758   0.0000   0.0000   0.0000   0.0491
  -7.100  -0.4114   0.01204   0.00612  -0.0796  0.8113  0.0275  -3.9014   0.0000   0.0000   0.0000   0.0439
  -7.000  -0.4003   0.01191   0.00596  -0.0795  0.8099  0.0277  -3.8273   0.0000   0.0000   0.0000   0.0385
  -6.900  -0.3891   0.01178   0.00581  -0.0795  0.8087  0.0280  -3.7538   0.0000   0.0000   0.0000   0.0328
  -6.800  -0.3780   0.01166   0.00566  -0.0795  0.8075  0.0283  -3.6808   0.0000   0.0000   0.0000   0.0267
  -6.700  -0.3668   0.01154   0.00552  -0.0795  0.8063  0.0286  -3.6084   0.0000   0.0000   0.0000   0.0202
  -6.600  -0.3555   0.01141   0.00539  -0.0796  0.8049  0.0289  -3.5361   0.0000   0.0000   0.0000   0.0131
  -6.500  -0.3442   0.01129   0.00525  -0.0796  0.8034  0.0293  -3.4645   0.0000   0.0000   0.0000   0.0056
  -6.400  -0.3329   0.01117   0.00512  -0.0796  0.8019  0.0297  -3.3934   0.0000   0.0000   0.0000  -0.0025
  -6.300  -0.3216   0.01106   0.00499  -0.0796  0.8005  0.0301  -3.3229   0.0000   0.0000   0.0000  -0.0110
  -6.200  -0.3103   0.01095   0.00486  -0.0796  0.7991  0.0305  -3.2527   0.0000   0.0000   0.0000  -0.0203
  -6.100  -0.2990   0.01086   0.00475  -0.0796  0.7978  0.0310  -3.1826   0.0000   0.0000   0.0000  -0.0302
  -6.000  -0.2877   0.01078   0.00465  -0.0796  0.7965  0.0313  -3.1125   0.0000   0.0000   0.0000  -0.0409
  -5.900  -0.2762   0.01074   0.00458  -0.0796  0.7952  0.0317  -3.0414   0.0000   0.0000   0.0000  -0.0526
  -5.800  -0.2654   0.01043   0.00428  -0.0796  0.7936  0.0340  -2.9838   0.0000   0.0000   0.0000  -0.0646
  -5.700  -0.2541   0.01031   0.00417  -0.0797  0.7920  0.0356  -2.9152   0.0000   0.0000   0.0000  -0.0784
  -5.600  -0.2426   0.01022   0.00409  -0.0797  0.7903  0.0370  -2.8462   0.0000   0.0000   0.0000  -0.0937
  -5.500  -0.2312   0.01015   0.00400  -0.0798  0.7888  0.0384  -2.7778   0.0000   0.0000   0.0000  -0.1105
  -5.400  -0.2196   0.01010   0.00394  -0.0798  0.7874  0.0393  -2.7094   0.0000   0.0000   0.0000  -0.1292
  -5.300  -0.2085   0.00993   0.00376  -0.0798  0.7861  0.0415  -2.6470   0.0000   0.0000   0.0000  -0.1490
  -5.200  -0.1972   0.00983   0.00366  -0.0798  0.7848  0.0433  -2.5904   0.0000   0.0000   0.0000  -0.1715
  -5.100  -0.1858   0.00975   0.00358  -0.0798  0.7835  0.0448  -2.5366   0.0000   0.0000   0.0000  -0.1972
  -5.000  -0.1742   0.00968   0.00351  -0.0799  0.7819  0.0461  -2.4824   0.0000   0.0000   0.0000  -0.2268
  -4.900  -0.1626   0.00962   0.00344  -0.0800  0.7802  0.0471  -2.4282   0.0000   0.0000   0.0000  -0.2606
  -4.800  -0.1512   0.00952   0.00334  -0.0800  0.7786  0.0487  -2.3761   0.0000   0.0000   0.0000  -0.2989
  -4.700  -0.1397   0.00942   0.00325  -0.0800  0.7771  0.0506  -2.3232   0.0000   0.0000   0.0000  -0.3434
  -4.600  -0.1283   0.00934   0.00318  -0.0801  0.7756  0.0523  -2.2698   0.0000   0.0000   0.0000  -0.3961
  -4.500  -0.1168   0.00928   0.00310  -0.0801  0.7743  0.0539  -2.2167   0.0000   0.0000   0.0000  -0.4593
  -4.400  -0.1053   0.00925   0.00304  -0.0801  0.7730  0.0553  -2.1638   0.0000   0.0000   0.0000  -0.5364
  -4.300  -0.0938   0.00914   0.00295  -0.0802  0.7714  0.0577  -2.1123   0.0000   0.0000   0.0000  -0.6325
  -4.200  -0.0823   0.00905   0.00288  -0.0802  0.7696  0.0603  -2.0601   0.0000   0.0000   0.0000  -0.7559
  -4.100  -0.0707   0.00898   0.00282  -0.0803  0.7678  0.0627  -2.0081   0.0000   0.0000   0.0000  -0.9201
  -4.000  -0.0592   0.00890   0.00275  -0.0803  0.7660  0.0657  -1.9569   0.0000   0.0000   0.0000  -1.1470
  -3.900  -0.0477   0.00882   0.00268  -0.0804  0.7644  0.0693  -1.9056   0.0000   0.0000   0.0000  -1.4821
  -3.800  -0.0362   0.00876   0.00262  -0.0804  0.7629  0.0730  -1.8547   0.0000   0.0000   0.0000  -2.0301
  -3.700  -0.0248   0.00870   0.00256  -0.0804  0.7613  0.0775  -1.8040   0.0000   0.0000   0.0000  -3.0818
  -3.600  -0.0132   0.00862   0.00251  -0.0805  0.7593  0.0818  -1.7534   0.0000   0.0000   0.0000  -6.0234
  -3.500  -0.0016   0.00856   0.00247  -0.0806  0.7573  0.0866  -1.7030   0.0000   0.0000   0.0000  -52.2839
  -3.400   0.0100   0.00849   0.00241  -0.0806  0.7554  0.0908  -1.6532   0.0000   0.0000   0.0000   8.5078
  -3.300   0.0215   0.00843   0.00236  -0.0807  0.7537  0.0953  -1.6036   0.0000   0.0000   0.0000   4.0795
  -3.200   0.0330   0.00837   0.00230  -0.0807  0.7520  0.0997  -1.5546   0.0000   0.0000   0.0000   2.7464
  -3.100   0.0445   0.00832   0.00225  -0.0808  0.7505  0.1043  -1.5059   0.0000   0.0000   0.0000   2.1011
  -3.000   0.0562   0.00825   0.00221  -0.0808  0.7486  0.1093  -1.4575   0.0000   0.0000   0.0000   1.7185
  -2.900   0.0678   0.00818   0.00217  -0.0809  0.7466  0.1148  -1.4093   0.0000   0.0000   0.0000   1.4670
  -2.800   0.0794   0.00813   0.00214  -0.0810  0.7447  0.1213  -1.3616   0.0000   0.0000   0.0000   1.2889
  -2.700   0.0909   0.00807   0.00209  -0.0810  0.7428  0.1276  -1.3144   0.0000   0.0000   0.0000   1.1568
  -2.600   0.1024   0.00801   0.00205  -0.0811  0.7411  0.1336  -1.2677   0.0000   0.0000   0.0000   1.0545
  -2.500   0.1139   0.00796   0.00200  -0.0811  0.7393  0.1401  -1.2215   0.0000   0.0000   0.0000   0.9731
  -2.400   0.1255   0.00789   0.00197  -0.0812  0.7370  0.1481  -1.1755   0.0000   0.0000   0.0000   0.9064
  -2.300   0.1371   0.00781   0.00193  -0.0813  0.7346  0.1580  -1.1301   0.0000   0.0000   0.0000   0.8512
  -2.200   0.1486   0.00774   0.00190  -0.0814  0.7324  0.1699  -1.0851   0.0000   0.0000   0.0000   0.8046
  -2.100   0.1601   0.00767   0.00187  -0.0814  0.7304  0.1820  -1.0406   0.0000   0.0000   0.0000   0.7647
  -2.000   0.1715   0.00762   0.00183  -0.0815  0.7286  0.1941  -0.9966   0.0000   0.0000   0.0000   0.7302
  -1.900   0.1831   0.00755   0.00181  -0.0815  0.7263  0.2054  -0.9527   0.0000   0.0000   0.0000   0.6998
  -1.800   0.1947   0.00748   0.00178  -0.0816  0.7240  0.2168  -0.9094   0.0000   0.0000   0.0000   0.6731
  -1.700   0.2063   0.00742   0.00176  -0.0817  0.7219  0.2283  -0.8665   0.0000   0.0000   0.0000   0.6494
  -1.600   0.2178   0.00736   0.00173  -0.0818  0.7199  0.2408  -0.8242   0.0000   0.0000   0.0000   0.6283
  -1.500   0.2293   0.00732   0.00170  -0.0818  0.7180  0.2534  -0.7824   0.0000   0.0000   0.0000   0.6092
  -1.400   0.2408   0.00725   0.00168  -0.0819  0.7156  0.2669  -0.7514   0.0000   0.0000   0.0000   0.5920
  -1.300   0.2524   0.00718   0.00167  -0.0820  0.7129  0.2813  -0.7221   0.0000   0.0000   0.0000   0.5764
  -1.200   0.2639   0.00712   0.00164  -0.0820  0.7104  0.2969  -0.6931   0.0000   0.0000   0.0000   0.5621
  -1.100   0.2753   0.00706   0.00162  -0.0821  0.7082  0.3139  -0.6644   0.0000   0.0000   0.0000   0.5491
  -1.000   0.2868   0.00699   0.00160  -0.0822  0.7059  0.3324  -0.6427   0.0000   0.0000   0.0000   0.5371
  -0.900   0.2983   0.00691   0.00159  -0.0823  0.7032  0.3526  -0.6508   0.0000   0.0000   0.0000   0.5260
  -0.800   0.3098   0.00682   0.00158  -0.0823  0.7006  0.3765  -0.6588   0.0000   0.0000   0.0000   0.5158
  -0.700   0.3211   0.00673   0.00156  -0.0824  0.6982  0.4054  -0.6668   0.0000   0.0000   0.0000   0.5064
  -0.600   0.3323   0.00663   0.00155  -0.0824  0.6960  0.4387  -0.6748   0.0000   0.0000   0.0000   0.4977
  -0.500   0.3436   0.00651   0.00155  -0.0825  0.6929  0.4738  -0.6838   0.0000   0.0000   0.0000   0.4895
  -0.400   0.3549   0.00640   0.00155  -0.0826  0.6898  0.5104  -0.6928   0.0000   0.0000   0.0000   0.4818
  -0.300   0.3661   0.00632   0.00154  -0.0826  0.6869  0.5416  -0.7017   0.0000   0.0000   0.0000   0.4745
  -0.200   0.3773   0.00625   0.00154  -0.0826  0.6839  0.5722  -0.7108   0.0000   0.0000   0.0000   0.4677
  -0.100   0.3886   0.00616   0.00155  -0.0826  0.6804  0.5997  -0.7213   0.0000   0.0000   0.0000   0.4612
   0.000   0.3998   0.00610   0.00155  -0.0826  0.6770  0.6274  -0.7318   0.0000   0.0000   0.0000   0.4550
   0.100   0.4109   0.00605   0.00156  -0.0825  0.6739  0.6524  -0.7424   0.0000   0.0000   0.0000   0.4492
   0.200   0.4222   0.00600   0.00158  -0.0825  0.6702  0.6766  -0.7530   0.0000   0.0000   0.0000   0.4436
   0.300   0.4334   0.00597   0.00158  -0.0825  0.6666  0.6962  -0.7636   0.0000   0.0000   0.0000   0.4383
   0.400   0.4445   0.00595   0.00159  -0.0824  0.6633  0.7131  -0.7742   0.0000   0.0000   0.0000   0.4333
   0.600   0.4671   0.00590   0.00162  -0.0824  0.6560  0.7444  -0.7956   0.0000   0.0000   0.0000   0.4239
   0.800   0.4895   0.00587   0.00164  -0.0823  0.6494  0.7711  -0.8170   0.0000   0.0000   0.0000   0.4154
   0.900   0.5006   0.00586   0.00166  -0.0822  0.6457  0.7847  -0.8277   0.0000   0.0000   0.0000   0.4114
   1.000   0.5116   0.00586   0.00167  -0.0821  0.6424  0.7979  -0.8383   0.0000   0.0000   0.0000   0.4076
   1.100   0.5228   0.00584   0.00169  -0.0821  0.6386  0.8108  -0.8497   0.0000   0.0000   0.0000   0.4039
   1.200   0.5338   0.00584   0.00171  -0.0820  0.6346  0.8230  -0.8611   0.0000   0.0000   0.0000   0.4003
   1.300   0.5446   0.00584   0.00172  -0.0818  0.6309  0.8358  -0.8724   0.0000   0.0000   0.0000   0.3969
   1.400   0.5554   0.00583   0.00174  -0.0817  0.6267  0.8486  -0.8838   0.0000   0.0000   0.0000   0.3936
   1.500   0.5660   0.00583   0.00176  -0.0815  0.6224  0.8615  -0.8950   0.0000   0.0000   0.0000   0.3904
   1.600   0.5764   0.00583   0.00178  -0.0812  0.6181  0.8747  -0.9066   0.0000   0.0000   0.0000   0.3872
   1.700   0.5868   0.00583   0.00180  -0.0810  0.6131  0.8880  -0.9199   0.0000   0.0000   0.0000   0.3842
   1.800   0.5967   0.00584   0.00182  -0.0806  0.6085  0.9020  -0.9329   0.0000   0.0000   0.0000   0.3812
   1.900   0.6065   0.00583   0.00184  -0.0802  0.6036  0.9165  -0.9459   0.0000   0.0000   0.0000   0.3782
   2.200   0.6383   0.00589   0.00189  -0.0795  0.5886  0.9589  -0.9883   0.0000   0.0000   0.0000   0.3702
   2.400   0.6663   0.00596   0.00192  -0.0807  0.5770  0.9805  -1.0229   0.0000   0.0000   0.0000   0.3665
   2.500   0.6818   0.00599   0.00194  -0.0816  0.5709  0.9899  -1.0413   0.0000   0.0000   0.0000   0.3651
   2.600   0.6973   0.00604   0.00195  -0.0826  0.5654  0.9992  -1.0598   0.0000   0.0000   0.0000   0.3637
   2.700   0.7087   0.00608   0.00198  -0.0827  0.5601  1.0000  -1.0753   0.0000   0.0000   0.0000   0.3618
   2.800   0.7196   0.00614   0.00200  -0.0826  0.5551  1.0000  -1.0904   0.0000   0.0000   0.0000   0.3598
   2.900   0.7307   0.00619   0.00203  -0.0826  0.5497  1.0000  -1.1065   0.0000   0.0000   0.0000   0.3580
   3.000   0.7415   0.00626   0.00207  -0.0826  0.5445  1.0000  -1.1228   0.0000   0.0000   0.0000   0.3562
   3.100   0.7527   0.00631   0.00210  -0.0826  0.5389  1.0000  -1.1394   0.0000   0.0000   0.0000   0.3544
   3.200   0.7635   0.00638   0.00213  -0.0826  0.5336  1.0000  -1.1558   0.0000   0.0000   0.0000   0.3527
   3.300   0.7746   0.00643   0.00217  -0.0826  0.5280  1.0000  -1.1725   0.0000   0.0000   0.0000   0.3511
   3.400   0.7855   0.00651   0.00222  -0.0825  0.5226  1.0000  -1.1903   0.0000   0.0000   0.0000   0.3494
   3.500   0.7966   0.00656   0.00226  -0.0825  0.5170  1.0000  -1.2091   0.0000   0.0000   0.0000   0.3479
   3.600   0.8074   0.00664   0.00230  -0.0825  0.5116  1.0000  -1.2276   0.0000   0.0000   0.0000   0.3463
   3.700   0.8185   0.00670   0.00234  -0.0825  0.5055  1.0000  -1.2464   0.0000   0.0000   0.0000   0.3448
   3.800   0.8293   0.00678   0.00239  -0.0825  0.4995  1.0000  -1.2650   0.0000   0.0000   0.0000   0.3434
   3.900   0.8402   0.00685   0.00243  -0.0824  0.4928  1.0000  -1.2838   0.0000   0.0000   0.0000   0.3419
   4.000   0.8510   0.00693   0.00248  -0.0824  0.4861  1.0000  -1.3026   0.0000   0.0000   0.0000   0.3405
   4.200   0.8726   0.00709   0.00258  -0.0823  0.4727  1.0000  -1.3433   0.0000   0.0000   0.0000   0.3378
   4.300   0.8833   0.00718   0.00263  -0.0823  0.4664  1.0000  -1.3651   0.0000   0.0000   0.0000   0.3365
   4.400   0.8941   0.00726   0.00269  -0.0822  0.4600  1.0000  -1.3871   0.0000   0.0000   0.0000   0.3353
   4.500   0.9049   0.00734   0.00274  -0.0822  0.4541  1.0000  -1.4092   0.0000   0.0000   0.0000   0.3340
   4.600   0.9156   0.00743   0.00280  -0.0822  0.4475  1.0000  -1.4313   0.0000   0.0000   0.0000   0.3328
   4.700   0.9263   0.00751   0.00286  -0.0821  0.4411  1.0000  -1.4559   0.0000   0.0000   0.0000   0.3316
   4.800   0.9369   0.00761   0.00293  -0.0821  0.4346  1.0000  -1.4804   0.0000   0.0000   0.0000   0.3304
   4.900   0.9476   0.00770   0.00299  -0.0820  0.4275  1.0000  -1.5051   0.0000   0.0000   0.0000   0.3293
   5.000   0.9582   0.00780   0.00305  -0.0820  0.4205  1.0000  -1.5299   0.0000   0.0000   0.0000   0.3281
   5.100   0.9686   0.00791   0.00313  -0.0819  0.4134  1.0000  -1.5545   0.0000   0.0000   0.0000   0.3270
   5.200   0.9792   0.00800   0.00322  -0.0818  0.4061  1.0000  -1.5795   0.0000   0.0000   0.0000   0.3259
   5.300   0.9897   0.00811   0.00329  -0.0818  0.3993  1.0000  -1.6057   0.0000   0.0000   0.0000   0.3248
   5.400   1.0000   0.00823   0.00337  -0.0817  0.3923  1.0000  -1.6322   0.0000   0.0000   0.0000   0.3238
   5.500   1.0105   0.00833   0.00344  -0.0816  0.3849  1.0000  -1.6591   0.0000   0.0000   0.0000   0.3227
   5.600   1.0208   0.00844   0.00352  -0.0815  0.3777  1.0000  -1.6859   0.0000   0.0000   0.0000   0.3217
   5.700   1.0310   0.00857   0.00361  -0.0814  0.3703  1.0000  -1.7126   0.0000   0.0000   0.0000   0.3207
   5.800   1.0413   0.00868   0.00369  -0.0813  0.3626  1.0000  -1.7422   0.0000   0.0000   0.0000   0.3197
   5.900   1.0516   0.00879   0.00378  -0.0812  0.3551  1.0000  -1.7741   0.0000   0.0000   0.0000   0.3187
   6.000   1.0617   0.00892   0.00387  -0.0811  0.3480  1.0000  -1.8058   0.0000   0.0000   0.0000   0.3178
   6.100   1.0719   0.00905   0.00396  -0.0810  0.3410  1.0000  -1.8379   0.0000   0.0000   0.0000   0.3168
   6.200   1.0821   0.00916   0.00404  -0.0809  0.3344  1.0000  -1.8702   0.0000   0.0000   0.0000   0.3159
   6.300   1.0921   0.00930   0.00414  -0.0808  0.3273  1.0000  -1.9022   0.0000   0.0000   0.0000   0.3150
   6.400   1.1021   0.00943   0.00424  -0.0806  0.3198  1.0000  -1.9374   0.0000   0.0000   0.0000   0.3141
   6.500   1.1120   0.00956   0.00434  -0.0805  0.3123  1.0000  -1.9795   0.0000   0.0000   0.0000   0.3132
   6.600   1.1218   0.00971   0.00445  -0.0803  0.3047  1.0000  -2.0214   0.0000   0.0000   0.0000   0.3123
   6.800   1.1414   0.01000   0.00467  -0.0800  0.2892  1.0000  -2.1061   0.0000   0.0000   0.0000   0.3105
   6.900   1.1511   0.01015   0.00478  -0.0799  0.2819  1.0000  -2.1487   0.0000   0.0000   0.0000   0.3096
   7.000   1.1606   0.01031   0.00490  -0.0797  0.2748  1.0000  -2.1912   0.0000   0.0000   0.0000   0.3088
   7.100   1.1702   0.01046   0.00502  -0.0795  0.2676  1.0000  -2.2377   0.0000   0.0000   0.0000   0.3079
   7.200   1.1798   0.01061   0.00516  -0.0793  0.2607  1.0000  -2.2873   0.0000   0.0000   0.0000   0.3071
   7.300   1.1891   0.01078   0.00529  -0.0791  0.2539  1.0000  -2.3366   0.0000   0.0000   0.0000   0.3062
   7.400   1.1986   0.01094   0.00542  -0.0789  0.2469  1.0000  -2.3866   0.0000   0.0000   0.0000   0.3054
   7.500   1.2080   0.01110   0.00554  -0.0787  0.2402  1.0000  -2.4369   0.0000   0.0000   0.0000   0.3046
   7.600   1.2171   0.01127   0.00568  -0.0785  0.2339  1.0000  -2.4868   0.0000   0.0000   0.0000   0.3038
   7.700   1.2265   0.01143   0.00581  -0.0782  0.2276  1.0000  -2.5376   0.0000   0.0000   0.0000   0.3030
   7.800   1.2358   0.01159   0.00594  -0.0780  0.2217  1.0000  -2.5884   0.0000   0.0000   0.0000   0.3022
   7.900   1.2446   0.01178   0.00609  -0.0777  0.2153  1.0000  -2.6386   0.0000   0.0000   0.0000   0.3014
   8.000   1.2539   0.01194   0.00623  -0.0775  0.2086  1.0000  -2.6901   0.0000   0.0000   0.0000   0.3006
   8.100   1.2627   0.01213   0.00637  -0.0772  0.2019  1.0000  -2.7408   0.0000   0.0000   0.0000   0.2998
   8.200   1.2712   0.01233   0.00653  -0.0769  0.1949  1.0000  -2.7911   0.0000   0.0000   0.0000   0.2990
   8.300   1.2800   0.01251   0.00668  -0.0766  0.1884  1.0000  -2.8424   0.0000   0.0000   0.0000   0.2982
   8.400   1.2887   0.01269   0.00684  -0.0763  0.1827  1.0000  -2.8937   0.0000   0.0000   0.0000   0.2974
   8.500   1.2972   0.01289   0.00700  -0.0760  0.1771  1.0000  -2.9447   0.0000   0.0000   0.0000   0.2967
   8.600   1.3059   0.01306   0.00715  -0.0757  0.1719  1.0000  -2.9969   0.0000   0.0000   0.0000   0.2959
   8.700   1.3141   0.01327   0.00733  -0.0754  0.1668  1.0000  -3.0476   0.0000   0.0000   0.0000   0.2951
   8.800   1.3228   0.01344   0.00748  -0.0751  0.1620  1.0000  -3.1002   0.0000   0.0000   0.0000   0.2944
   8.900   1.3308   0.01366   0.00766  -0.0747  0.1575  1.0000  -3.1511   0.0000   0.0000   0.0000   0.2936
   9.000   1.3393   0.01383   0.00782  -0.0744  0.1531  1.0000  -3.2037   0.0000   0.0000   0.0000   0.2928
   9.100   1.3470   0.01405   0.00804  -0.0739  0.1490  1.0000  -3.2543   0.0000   0.0000   0.0000   0.2920
   9.200   1.3555   0.01422   0.00820  -0.0736  0.1450  1.0000  -3.3076   0.0000   0.0000   0.0000   0.2913
   9.300   1.3631   0.01443   0.00839  -0.0732  0.1410  1.0000  -3.3585   0.0000   0.0000   0.0000   0.2905
   9.400   1.3710   0.01461   0.00856  -0.0728  0.1372  1.0000  -3.4107   0.0000   0.0000   0.0000   0.2898
   9.500   1.3778   0.01482   0.00875  -0.0722  0.1332  1.0000  -3.4600   0.0000   0.0000   0.0000   0.2889
   9.600   1.3849   0.01502   0.00894  -0.0716  0.1296  1.0000  -3.5104   0.0000   0.0000   0.0000   0.2881
   9.700   1.3917   0.01524   0.00914  -0.0710  0.1257  1.0000  -3.5601   0.0000   0.0000   0.0000   0.2873
   9.800   1.3985   0.01546   0.00935  -0.0705  0.1221  1.0000  -3.6099   0.0000   0.0000   0.0000   0.2865
   9.900   1.4053   0.01569   0.00956  -0.0699  0.1183  1.0000  -3.6599   0.0000   0.0000   0.0000   0.2857
  10.000   1.4117   0.01594   0.00980  -0.0694  0.1149  1.0000  -3.7091   0.0000   0.0000   0.0000   0.2849
  10.100   1.4184   0.01618   0.01003  -0.0688  0.1114  1.0000  -3.7594   0.0000   0.0000   0.0000   0.2841
  10.200   1.4245   0.01646   0.01029  -0.0682  0.1082  1.0000  -3.8078   0.0000   0.0000   0.0000   0.2834
  10.300   1.4313   0.01670   0.01052  -0.0677  0.1048  1.0000  -3.8587   0.0000   0.0000   0.0000   0.2826
  10.500   1.4437   0.01726   0.01106  -0.0667  0.0986  1.0000  -3.9574   0.0000   0.0000   0.0000   0.2811
  10.600   1.4495   0.01757   0.01135  -0.0661  0.0956  1.0000  -4.0060   0.0000   0.0000   0.0000   0.2804
  10.700   1.4557   0.01786   0.01163  -0.0656  0.0929  1.0000  -4.0558   0.0000   0.0000   0.0000   0.2797
  10.800   1.4618   0.01816   0.01193  -0.0651  0.0900  1.0000  -4.1053   0.0000   0.0000   0.0000   0.2790
  10.900   1.4674   0.01849   0.01225  -0.0645  0.0874  1.0000  -4.1537   0.0000   0.0000   0.0000   0.2782
  11.000   1.4738   0.01878   0.01253  -0.0640  0.0847  1.0000  -4.2045   0.0000   0.0000   0.0000   0.2776
  11.100   1.4792   0.01913   0.01289  -0.0635  0.0821  1.0000  -4.2526   0.0000   0.0000   0.0000   0.2768
  11.200   1.4853   0.01944   0.01320  -0.0630  0.0797  1.0000  -4.3029   0.0000   0.0000   0.0000   0.2762
  11.300   1.4908   0.01979   0.01354  -0.0625  0.0773  1.0000  -4.3517   0.0000   0.0000   0.0000   0.2755
  11.400   1.4963   0.02015   0.01389  -0.0619  0.0751  1.0000  -4.4003   0.0000   0.0000   0.0000   0.2748
  11.500   1.5021   0.02048   0.01423  -0.0615  0.0729  1.0000  -4.4501   0.0000   0.0000   0.0000   0.2742
  11.600   1.5070   0.02088   0.01462  -0.0609  0.0707  1.0000  -4.4972   0.0000   0.0000   0.0000   0.2735
  11.700   1.5128   0.02122   0.01496  -0.0604  0.0687  1.0000  -4.5475   0.0000   0.0000   0.0000   0.2728
  11.800   1.5179   0.02161   0.01535  -0.0599  0.0666  1.0000  -4.5956   0.0000   0.0000   0.0000   0.2722
  11.900   1.5230   0.02201   0.01574  -0.0594  0.0646  1.0000  -4.6435   0.0000   0.0000   0.0000   0.2715
  12.000   1.5283   0.02239   0.01613  -0.0589  0.0626  1.0000  -4.6946   0.0000   0.0000   0.0000   0.2709
  12.100   1.5328   0.02284   0.01656  -0.0584  0.0607  1.0000  -4.7444   0.0000   0.0000   0.0000   0.2702
  12.200   1.5380   0.02323   0.01696  -0.0579  0.0590  1.0000  -4.7970   0.0000   0.0000   0.0000   0.2696
  12.300   1.5426   0.02367   0.01741  -0.0574  0.0572  1.0000  -4.8475   0.0000   0.0000   0.0000   0.2690
  12.400   1.5469   0.02414   0.01787  -0.0568  0.0556  1.0000  -4.8972   0.0000   0.0000   0.0000   0.2683
  12.500   1.5518   0.02456   0.01830  -0.0564  0.0539  1.0000  -4.9491   0.0000   0.0000   0.0000   0.2677
  12.600   1.5558   0.02506   0.01879  -0.0558  0.0523  1.0000  -4.9978   0.0000   0.0000   0.0000   0.2671
  12.700   1.5603   0.02551   0.01926  -0.0553  0.0509  1.0000  -5.0484   0.0000   0.0000   0.0000   0.2665
  12.800   1.5647   0.02598   0.01973  -0.0548  0.0493  1.0000  -5.0989   0.0000   0.0000   0.0000   0.2659
  13.000   1.5727   0.02699   0.02076  -0.0538  0.0466  1.0000  -5.1970   0.0000   0.0000   0.0000   0.2647
  13.100   1.5766   0.02751   0.02129  -0.0533  0.0453  1.0000  -5.2457   0.0000   0.0000   0.0000   0.2641
  13.300   1.5839   0.02859   0.02239  -0.0523  0.0430  1.0000  -5.3418   0.0000   0.0000   0.0000   0.2629
  13.400   1.5875   0.02915   0.02295  -0.0518  0.0419  1.0000  -5.3897   0.0000   0.0000   0.0000   0.2623
  13.500   1.5902   0.02977   0.02358  -0.0513  0.0409  1.0000  -5.4345   0.0000   0.0000   0.0000   0.2617
  13.600   1.5939   0.03032   0.02415  -0.0508  0.0400  1.0000  -5.4827   0.0000   0.0000   0.0000   0.2612
  13.700   1.5973   0.03090   0.02474  -0.0504  0.0390  1.0000  -5.5302   0.0000   0.0000   0.0000   0.2606
  13.800   1.6000   0.03154   0.02538  -0.0499  0.0382  1.0000  -5.5752   0.0000   0.0000   0.0000   0.2600
  13.900   1.6021   0.03223   0.02609  -0.0494  0.0374  1.0000  -5.6176   0.0000   0.0000   0.0000   0.2595
  14.000   1.6056   0.03281   0.02669  -0.0489  0.0367  1.0000  -5.6655   0.0000   0.0000   0.0000   0.2589
  14.100   1.6084   0.03346   0.02735  -0.0485  0.0359  1.0000  -5.7107   0.0000   0.0000   0.0000   0.2584
  14.200   1.6105   0.03417   0.02807  -0.0480  0.0353  1.0000  -5.7537   0.0000   0.0000   0.0000   0.2579
  14.300   1.6118   0.03495   0.02887  -0.0475  0.0347  1.0000  -5.7957   0.0000   0.0000   0.0000   0.2573
  14.400   1.6147   0.03561   0.02955  -0.0471  0.0341  1.0000  -5.8447   0.0000   0.0000   0.0000   0.2568
  14.500   1.6175   0.03627   0.03024  -0.0467  0.0334  1.0000  -5.8939   0.0000   0.0000   0.0000   0.2563
  14.600   1.6197   0.03700   0.03098  -0.0463  0.0328  1.0000  -5.9404   0.0000   0.0000   0.0000   0.2558
  14.700   1.6212   0.03779   0.03179  -0.0459  0.0323  1.0000  -5.9846   0.0000   0.0000   0.0000   0.2553
  14.800   1.6220   0.03865   0.03267  -0.0454  0.0319  1.0000  -6.0254   0.0000   0.0000   0.0000   0.2548
  14.900   1.6237   0.03946   0.03350  -0.0451  0.0314  1.0000  -6.0695   0.0000   0.0000   0.0000   0.2543
  15.000   1.6262   0.04019   0.03426  -0.0447  0.0310  1.0000  -6.1175   0.0000   0.0000   0.0000   0.2538
  15.100   1.6282   0.04098   0.03508  -0.0444  0.0305  1.0000  -6.1634   0.0000   0.0000   0.0000   0.2534
  15.200   1.6297   0.04182   0.03595  -0.0441  0.0301  1.0000  -6.2074   0.0000   0.0000   0.0000   0.2530
  15.300   1.6308   0.04273   0.03687  -0.0438  0.0297  1.0000  -6.2494   0.0000   0.0000   0.0000   0.2525
  15.400   1.6312   0.04371   0.03787  -0.0435  0.0294  1.0000  -6.2918   0.0000   0.0000   0.0000   0.2521
  15.500   1.6306   0.04481   0.03899  -0.0431  0.0291  1.0000  -6.3408   0.0000   0.0000   0.0000   0.2517
  15.600   1.6328   0.04563   0.03985  -0.0429  0.0287  1.0000  -6.4058   0.0000   0.0000   0.0000   0.2513
  15.700   1.6345   0.04651   0.04076  -0.0427  0.0284  1.0000  -6.4683   0.0000   0.0000   0.0000   0.2509
  15.800   1.6360   0.04743   0.04171  -0.0425  0.0281  1.0000  -6.5293   0.0000   0.0000   0.0000   0.2505
  15.900   1.6370   0.04841   0.04271  -0.0423  0.0277  1.0000  -6.5881   0.0000   0.0000   0.0000   0.2502
  16.000   1.6376   0.04943   0.04377  -0.0421  0.0275  1.0000  -6.6446   0.0000   0.0000   0.0000   0.2498
  16.100   1.6377   0.05054   0.04490  -0.0420  0.0272  1.0000  -6.6980   0.0000   0.0000   0.0000   0.2495
  16.200   1.6373   0.05170   0.04608  -0.0418  0.0270  1.0000  -6.7483   0.0000   0.0000   0.0000   0.2492
  16.300   1.6360   0.05297   0.04738  -0.0417  0.0267  1.0000  -6.7936   0.0000   0.0000   0.0000   0.2489
  16.400   1.6350   0.05424   0.04868  -0.0416  0.0265  1.0000  -6.8397   0.0000   0.0000   0.0000   0.2486
  16.500   1.6358   0.05529   0.04977  -0.0415  0.0263  1.0000  -6.8978   0.0000   0.0000   0.0000   0.2483
  16.600   1.6362   0.05642   0.05093  -0.0414  0.0260  1.0000  -6.9527   0.0000   0.0000   0.0000   0.2480
  16.700   1.6363   0.05758   0.05213  -0.0414  0.0258  1.0000  -7.0064   0.0000   0.0000   0.0000   0.2477
  16.800   1.6361   0.05880   0.05338  -0.0414  0.0256  1.0000  -7.0580   0.0000   0.0000   0.0000   0.2475
  16.900   1.6357   0.06004   0.05465  -0.0414  0.0254  1.0000  -7.1087   0.0000   0.0000   0.0000   0.2472
  17.000   1.6350   0.06133   0.05597  -0.0414  0.0252  1.0000  -7.1574   0.0000   0.0000   0.0000   0.2470
  17.100   1.6338   0.06269   0.05737  -0.0414  0.0250  1.0000  -7.2028   0.0000   0.0000   0.0000   0.2468
  17.200   1.6322   0.06412   0.05882  -0.0415  0.0248  1.0000  -7.2458   0.0000   0.0000   0.0000   0.2467
  17.300   1.6300   0.06563   0.06037  -0.0416  0.0247  1.0000  -7.2847   0.0000   0.0000   0.0000   0.2465
  17.400   1.6271   0.06726   0.06202  -0.0417  0.0245  1.0000  -7.3187   0.0000   0.0000   0.0000   0.2464
  17.500   1.6234   0.06900   0.06380  -0.0419  0.0244  1.0000  -7.3466   0.0000   0.0000   0.0000   0.2463
  17.600   1.6211   0.07057   0.06540  -0.0421  0.0242  1.0000  -7.3838   0.0000   0.0000   0.0000   0.2462
  17.700   1.6204   0.07193   0.06680  -0.0422  0.0240  1.0000  -7.4323   0.0000   0.0000   0.0000   0.2461
  17.800   1.6195   0.07334   0.06825  -0.0424  0.0239  1.0000  -7.4783   0.0000   0.0000   0.0000   0.2459
  17.900   1.6180   0.07483   0.06979  -0.0426  0.0237  1.0000  -7.5207   0.0000   0.0000   0.0000   0.2459
  18.000   1.6163   0.07635   0.07135  -0.0429  0.0235  1.0000  -7.5620   0.0000   0.0000   0.0000   0.2458
  18.100   1.6144   0.07792   0.07295  -0.0431  0.0234  1.0000  -7.6013   0.0000   0.0000   0.0000   0.2457
  18.200   1.6121   0.07954   0.07461  -0.0434  0.0232  1.0000  -7.6382   0.0000   0.0000   0.0000   0.2457
  18.300   1.6097   0.08119   0.07629  -0.0437  0.0231  1.0000  -7.6742   0.0000   0.0000   0.0000   0.2457
  18.400   1.6071   0.08288   0.07803  -0.0441  0.0229  1.0000  -7.7080   0.0000   0.0000   0.0000   0.2457
  18.500   1.6041   0.08464   0.07981  -0.0445  0.0228  1.0000  -7.7395   0.0000   0.0000   0.0000   0.2457
  18.600   1.6008   0.08644   0.08165  -0.0449  0.0227  1.0000  -7.7685   0.0000   0.0000   0.0000   0.2458
  18.700   1.5970   0.08833   0.08358  -0.0453  0.0226  1.0000  -7.7932   0.0000   0.0000   0.0000   0.2459
  18.800   1.5929   0.09029   0.08557  -0.0458  0.0225  1.0000  -7.8148   0.0000   0.0000   0.0000   0.2460
  18.900   1.5884   0.09230   0.08762  -0.0463  0.0224  1.0000  -7.8336   0.0000   0.0000   0.0000   0.2462
  19.000   1.5834   0.09440   0.08974  -0.0469  0.0223  1.0000  -7.8483   0.0000   0.0000   0.0000   0.2464
  19.100   1.5780   0.09658   0.09196  -0.0476  0.0222  1.0000  -7.8588   0.0000   0.0000   0.0000   0.2466
  19.200   1.5727   0.09876   0.09418  -0.0482  0.0221  1.0000  -7.8695   0.0000   0.0000   0.0000   0.2469
  19.300   1.5703   0.10051   0.09597  -0.0488  0.0220  1.0000  -7.9013   0.0000   0.0000   0.0000   0.2470
  19.400   1.5674   0.10234   0.09784  -0.0493  0.0219  1.0000  -7.9291   0.0000   0.0000   0.0000   0.2472
  19.500   1.5645   0.10417   0.09972  -0.0499  0.0218  1.0000  -7.9565   0.0000   0.0000   0.0000   0.2473
  19.600   1.5613   0.10606   0.10165  -0.0506  0.0217  1.0000  -7.9811   0.0000   0.0000   0.0000   0.2476
  19.700   1.5581   0.10795   0.10359  -0.0512  0.0216  1.0000  -8.0054   0.0000   0.0000   0.0000   0.2478
  19.800   1.5549   0.10986   0.10554  -0.0519  0.0215  1.0000  -8.0289   0.0000   0.0000   0.0000   0.2481
  19.900   1.5516   0.11181   0.10752  -0.0527  0.0214  1.0000  -8.0508   0.0000   0.0000   0.0000   0.2483
  20.000   1.5484   0.11372   0.10947  -0.0534  0.0214  1.0000  -8.0735   0.0000   0.0000   0.0000   0.2486


