xflr5 v6.57

 Calculated polar for: reaf

 1 1 Reynolds number fixed          Mach number fixed         

 xtrf =   1.000 (top)        1.000 (bottom)
 Mach =   0.000     Re =     0.560 e 6     Ncrit =   9.000

  alpha     CL        CD       CDp       Cm    Top Xtr Bot Xtr   Cpmin    Chinge    XCp    
 ------- -------- --------- --------- -------- ------- ------- -------- --------- ---------
 -10.000  -0.4314   0.02664   0.02212  -0.1366  0.8245  0.0252  -5.8870   0.0000   0.0000   0.0000  -0.0882
  -9.900  -0.4244   0.02565   0.02095  -0.1371  0.8230  0.0254  -5.8512   0.0000   0.0000   0.0000  -0.0946
  -9.800  -0.4166   0.02480   0.01994  -0.1375  0.8217  0.0256  -5.8067   0.0000   0.0000   0.0000  -0.1016
  -9.700  -0.4082   0.02411   0.01909  -0.1378  0.8206  0.0258  -5.7533   0.0000   0.0000   0.0000  -0.1093
  -9.600  -0.3992   0.02358   0.01841  -0.1380  0.8195  0.0259  -5.6913   0.0000   0.0000   0.0000  -0.1178
  -9.500  -0.3917   0.02252   0.01726  -0.1383  0.8180  0.0262  -5.6467   0.0000   0.0000   0.0000  -0.1253
  -9.400  -0.3826   0.02191   0.01662  -0.1385  0.8165  0.0264  -5.5748   0.0000   0.0000   0.0000  -0.1343
  -9.300  -0.3728   0.02151   0.01621  -0.1386  0.8151  0.0266  -5.4922   0.0000   0.0000   0.0000  -0.1443
  -9.200  -0.3628   0.02120   0.01587  -0.1387  0.8139  0.0268  -5.4067   0.0000   0.0000   0.0000  -0.1552
  -9.100  -0.3526   0.02091   0.01555  -0.1388  0.8127  0.0270  -5.3210   0.0000   0.0000   0.0000  -0.1669
  -9.000  -0.3422   0.02065   0.01525  -0.1389  0.8116  0.0272  -5.2350   0.0000   0.0000   0.0000  -0.1794
  -8.900  -0.3319   0.02040   0.01495  -0.1390  0.8106  0.0275  -5.1501   0.0000   0.0000   0.0000  -0.1928
  -8.800  -0.3214   0.02015   0.01467  -0.1391  0.8093  0.0278  -5.0655   0.0000   0.0000   0.0000  -0.2071
  -8.700  -0.3110   0.01987   0.01435  -0.1393  0.8079  0.0281  -4.9837   0.0000   0.0000   0.0000  -0.2223
  -8.600  -0.3007   0.01956   0.01399  -0.1394  0.8065  0.0284  -4.9051   0.0000   0.0000   0.0000  -0.2386
  -8.500  -0.2903   0.01923   0.01359  -0.1395  0.8052  0.0287  -4.8293   0.0000   0.0000   0.0000  -0.2560
  -8.400  -0.2798   0.01889   0.01317  -0.1396  0.8040  0.0291  -4.7553   0.0000   0.0000   0.0000  -0.2748
  -8.300  -0.2693   0.01857   0.01275  -0.1396  0.8029  0.0294  -4.6818   0.0000   0.0000   0.0000  -0.2952
  -8.200  -0.2586   0.01829   0.01236  -0.1397  0.8018  0.0296  -4.6099   0.0000   0.0000   0.0000  -0.3176
  -8.000  -0.2383   0.01736   0.01133  -0.1399  0.7995  0.0302  -4.4861   0.0000   0.0000   0.0000  -0.3658
  -7.900  -0.2279   0.01703   0.01100  -0.1400  0.7981  0.0304  -4.4135   0.0000   0.0000   0.0000  -0.3938
  -7.800  -0.2172   0.01679   0.01076  -0.1400  0.7968  0.0307  -4.3373   0.0000   0.0000   0.0000  -0.4254
  -7.700  -0.2063   0.01658   0.01054  -0.1401  0.7955  0.0310  -4.2609   0.0000   0.0000   0.0000  -0.4607
  -7.600  -0.1954   0.01638   0.01032  -0.1402  0.7944  0.0313  -4.1855   0.0000   0.0000   0.0000  -0.5002
  -7.500  -0.1845   0.01618   0.01008  -0.1403  0.7933  0.0317  -4.1115   0.0000   0.0000   0.0000  -0.5446
  -7.400  -0.1735   0.01598   0.00983  -0.1403  0.7923  0.0321  -4.0391   0.0000   0.0000   0.0000  -0.5947
  -7.300  -0.1624   0.01578   0.00958  -0.1404  0.7914  0.0324  -3.9677   0.0000   0.0000   0.0000  -0.6518
  -7.200  -0.1515   0.01557   0.00934  -0.1405  0.7901  0.0329  -3.8976   0.0000   0.0000   0.0000  -0.7167
  -7.100  -0.1404   0.01539   0.00912  -0.1405  0.7887  0.0333  -3.8274   0.0000   0.0000   0.0000  -0.7924
  -7.000  -0.1292   0.01525   0.00892  -0.1406  0.7874  0.0337  -3.7566   0.0000   0.0000   0.0000  -0.8823
  -6.900  -0.1184   0.01497   0.00860  -0.1406  0.7861  0.0341  -3.6904   0.0000   0.0000   0.0000  -0.9855
  -6.800  -0.1078   0.01464   0.00828  -0.1407  0.7849  0.0346  -3.6214   0.0000   0.0000   0.0000  -1.1068
  -6.700  -0.0968   0.01446   0.00810  -0.1408  0.7839  0.0350  -3.5472   0.0000   0.0000   0.0000  -1.2614
  -6.600  -0.0856   0.01432   0.00794  -0.1408  0.7829  0.0355  -3.4734   0.0000   0.0000   0.0000  -1.4587
  -6.500  -0.0743   0.01418   0.00777  -0.1409  0.7820  0.0360  -3.4012   0.0000   0.0000   0.0000  -1.7168
  -6.400  -0.0632   0.01402   0.00760  -0.1410  0.7807  0.0365  -3.3314   0.0000   0.0000   0.0000  -2.0618
  -6.300  -0.0521   0.01386   0.00743  -0.1410  0.7793  0.0370  -3.2690   0.0000   0.0000   0.0000  -2.5540
  -6.200  -0.0409   0.01371   0.00725  -0.1411  0.7779  0.0375  -3.2075   0.0000   0.0000   0.0000  -3.3197
  -6.100  -0.0296   0.01359   0.00708  -0.1411  0.7767  0.0380  -3.1461   0.0000   0.0000   0.0000  -4.6812
  -6.000  -0.0185   0.01338   0.00684  -0.1411  0.7755  0.0385  -3.0871   0.0000   0.0000   0.0000  -7.6402
  -5.900  -0.0076   0.01312   0.00658  -0.1412  0.7744  0.0391  -3.0264   0.0000   0.0000   0.0000  -18.9223
  -5.800   0.0036   0.01297   0.00643  -0.1413  0.7734  0.0397  -2.9617   0.0000   0.0000   0.0000  40.4816
  -5.700   0.0150   0.01286   0.00630  -0.1414  0.7724  0.0404  -2.8972   0.0000   0.0000   0.0000   9.9824
  -5.600   0.0263   0.01275   0.00619  -0.1415  0.7713  0.0411  -2.8338   0.0000   0.0000   0.0000   5.7976
  -5.500   0.0375   0.01264   0.00607  -0.1415  0.7699  0.0419  -2.7719   0.0000   0.0000   0.0000   4.1350
  -5.400   0.0489   0.01256   0.00595  -0.1415  0.7685  0.0426  -2.7105   0.0000   0.0000   0.0000   3.2310
  -5.300   0.0601   0.01239   0.00577  -0.1416  0.7673  0.0434  -2.6514   0.0000   0.0000   0.0000   2.6765
  -5.200   0.0712   0.01220   0.00560  -0.1417  0.7660  0.0442  -2.5900   0.0000   0.0000   0.0000   2.2976
  -5.100   0.0826   0.01210   0.00549  -0.1418  0.7649  0.0451  -2.5272   0.0000   0.0000   0.0000   2.0154
  -5.000   0.0940   0.01200   0.00538  -0.1418  0.7638  0.0460  -2.4656   0.0000   0.0000   0.0000   1.8001
  -4.900   0.1055   0.01191   0.00526  -0.1419  0.7628  0.0469  -2.4053   0.0000   0.0000   0.0000   1.6307
  -4.800   0.1171   0.01184   0.00514  -0.1420  0.7618  0.0478  -2.3471   0.0000   0.0000   0.0000   1.4943
  -4.700   0.1281   0.01165   0.00498  -0.1420  0.7604  0.0488  -2.2957   0.0000   0.0000   0.0000   1.3873
  -4.600   0.1393   0.01153   0.00488  -0.1421  0.7590  0.0498  -2.2410   0.0000   0.0000   0.0000   1.2957
  -4.500   0.1507   0.01143   0.00479  -0.1422  0.7576  0.0509  -2.1861   0.0000   0.0000   0.0000   1.2166
  -4.400   0.1621   0.01136   0.00469  -0.1422  0.7563  0.0522  -2.1321   0.0000   0.0000   0.0000   1.1481
  -4.200   0.1850   0.01113   0.00445  -0.1424  0.7541  0.0549  -2.0256   0.0000   0.0000   0.0000   1.0369
  -4.100   0.1966   0.01106   0.00436  -0.1425  0.7531  0.0564  -1.9711   0.0000   0.0000   0.0000   0.9907
  -4.000   0.2082   0.01100   0.00428  -0.1426  0.7521  0.0580  -1.9179   0.0000   0.0000   0.0000   0.9493
  -3.900   0.2194   0.01090   0.00419  -0.1426  0.7506  0.0596  -1.8669   0.0000   0.0000   0.0000   0.9134
  -3.800   0.2307   0.01078   0.00410  -0.1427  0.7491  0.0613  -1.8148   0.0000   0.0000   0.0000   0.8809
  -3.700   0.2421   0.01071   0.00403  -0.1428  0.7477  0.0633  -1.7627   0.0000   0.0000   0.0000   0.8510
  -3.600   0.2536   0.01064   0.00394  -0.1428  0.7464  0.0654  -1.7116   0.0000   0.0000   0.0000   0.8237
  -3.500   0.2651   0.01054   0.00386  -0.1429  0.7452  0.0678  -1.6598   0.0000   0.0000   0.0000   0.7989
  -3.400   0.2767   0.01048   0.00378  -0.1430  0.7441  0.0705  -1.6085   0.0000   0.0000   0.0000   0.7758
  -3.300   0.2883   0.01038   0.00369  -0.1431  0.7430  0.0734  -1.5578   0.0000   0.0000   0.0000   0.7548
  -3.200   0.2999   0.01033   0.00362  -0.1432  0.7420  0.0768  -1.5073   0.0000   0.0000   0.0000   0.7352
  -3.100   0.3111   0.01023   0.00357  -0.1433  0.7404  0.0804  -1.4616   0.0000   0.0000   0.0000   0.7176
  -3.000   0.3225   0.01016   0.00351  -0.1433  0.7389  0.0849  -1.4163   0.0000   0.0000   0.0000   0.7010
  -2.900   0.3339   0.01007   0.00345  -0.1434  0.7374  0.0900  -1.3709   0.0000   0.0000   0.0000   0.6856
  -2.800   0.3454   0.00999   0.00339  -0.1435  0.7360  0.0960  -1.3258   0.0000   0.0000   0.0000   0.6711
  -2.700   0.3570   0.00991   0.00333  -0.1436  0.7348  0.1029  -1.2808   0.0000   0.0000   0.0000   0.6575
  -2.600   0.3685   0.00983   0.00327  -0.1437  0.7336  0.1110  -1.2358   0.0000   0.0000   0.0000   0.6447
  -2.500   0.3802   0.00976   0.00321  -0.1438  0.7325  0.1204  -1.1911   0.0000   0.0000   0.0000   0.6327
  -2.400   0.3916   0.00969   0.00318  -0.1439  0.7312  0.1307  -1.1470   0.0000   0.0000   0.0000   0.6215
  -2.300   0.4028   0.00961   0.00316  -0.1440  0.7295  0.1419  -1.1035   0.0000   0.0000   0.0000   0.6111
  -2.200   0.4142   0.00954   0.00313  -0.1441  0.7280  0.1541  -1.0600   0.0000   0.0000   0.0000   0.6011
  -2.000   0.4372   0.00940   0.00306  -0.1443  0.7252  0.1794  -0.9741   0.0000   0.0000   0.0000   0.5827
  -1.900   0.4487   0.00934   0.00303  -0.1444  0.7239  0.1928  -0.9344   0.0000   0.0000   0.0000   0.5741
  -1.700   0.4719   0.00923   0.00297  -0.1446  0.7216  0.2213  -0.8558   0.0000   0.0000   0.0000   0.5583
  -1.600   0.4831   0.00916   0.00297  -0.1446  0.7199  0.2368  -0.8237   0.0000   0.0000   0.0000   0.5510
  -1.500   0.4944   0.00910   0.00296  -0.1447  0.7182  0.2529  -0.8311   0.0000   0.0000   0.0000   0.5441
  -1.400   0.5058   0.00903   0.00294  -0.1448  0.7166  0.2700  -0.8386   0.0000   0.0000   0.0000   0.5374
  -1.300   0.5173   0.00896   0.00292  -0.1449  0.7151  0.2880  -0.8462   0.0000   0.0000   0.0000   0.5311
  -1.200   0.5288   0.00890   0.00290  -0.1450  0.7138  0.3081  -0.8539   0.0000   0.0000   0.0000   0.5249
  -1.100   0.5404   0.00883   0.00288  -0.1451  0.7125  0.3300  -0.8615   0.0000   0.0000   0.0000   0.5191
  -1.000   0.5519   0.00877   0.00287  -0.1453  0.7112  0.3525  -0.8691   0.0000   0.0000   0.0000   0.5135
  -0.900   0.5630   0.00870   0.00288  -0.1453  0.7094  0.3760  -0.8767   0.0000   0.0000   0.0000   0.5082
  -0.800   0.5742   0.00862   0.00289  -0.1454  0.7076  0.4012  -0.8845   0.0000   0.0000   0.0000   0.5030
  -0.700   0.5855   0.00855   0.00289  -0.1454  0.7060  0.4278  -0.8925   0.0000   0.0000   0.0000   0.4981
  -0.600   0.5969   0.00848   0.00288  -0.1455  0.7045  0.4549  -0.9005   0.0000   0.0000   0.0000   0.4933
  -0.500   0.6083   0.00841   0.00288  -0.1456  0.7031  0.4837  -0.9085   0.0000   0.0000   0.0000   0.4887
  -0.400   0.6198   0.00835   0.00288  -0.1457  0.7018  0.5125  -0.9166   0.0000   0.0000   0.0000   0.4842
  -0.300   0.6309   0.00829   0.00290  -0.1457  0.7002  0.5410  -0.9247   0.0000   0.0000   0.0000   0.4799
  -0.200   0.6419   0.00822   0.00293  -0.1457  0.6983  0.5684  -0.9327   0.0000   0.0000   0.0000   0.4758
  -0.100   0.6530   0.00816   0.00294  -0.1457  0.6965  0.5956  -0.9407   0.0000   0.0000   0.0000   0.4718
   0.000   0.6641   0.00811   0.00296  -0.1457  0.6948  0.6222  -0.9491   0.0000   0.0000   0.0000   0.4678
   0.100   0.6752   0.00806   0.00297  -0.1456  0.6933  0.6491  -0.9577   0.0000   0.0000   0.0000   0.4640
   0.200   0.6864   0.00802   0.00298  -0.1456  0.6919  0.6738  -0.9666   0.0000   0.0000   0.0000   0.4603
   0.300   0.6974   0.00800   0.00300  -0.1456  0.6904  0.6963  -0.9754   0.0000   0.0000   0.0000   0.4567
   0.400   0.7082   0.00797   0.00303  -0.1455  0.6884  0.7171  -0.9839   0.0000   0.0000   0.0000   0.4532
   0.500   0.7189   0.00793   0.00306  -0.1453  0.6864  0.7361  -0.9925   0.0000   0.0000   0.0000   0.4499
   0.600   0.7298   0.00791   0.00307  -0.1452  0.6846  0.7546  -1.0012   0.0000   0.0000   0.0000   0.4465
   0.700   0.7406   0.00788   0.00308  -0.1451  0.6829  0.7721  -1.0101   0.0000   0.0000   0.0000   0.4433
   0.800   0.7514   0.00786   0.00308  -0.1450  0.6814  0.7894  -1.0191   0.0000   0.0000   0.0000   0.4402
   0.900   0.7619   0.00784   0.00310  -0.1448  0.6796  0.8059  -1.0281   0.0000   0.0000   0.0000   0.4371
   1.000   0.7721   0.00781   0.00312  -0.1445  0.6775  0.8230  -1.0369   0.0000   0.0000   0.0000   0.4341
   1.100   0.7822   0.00778   0.00314  -0.1442  0.6754  0.8402  -1.0457   0.0000   0.0000   0.0000   0.4312
   1.200   0.7921   0.00775   0.00315  -0.1439  0.6736  0.8576  -1.0546   0.0000   0.0000   0.0000   0.4283
   1.300   0.8017   0.00772   0.00314  -0.1434  0.6718  0.8767  -1.0636   0.0000   0.0000   0.0000   0.4254
   1.500   0.8201   0.00763   0.00314  -0.1423  0.6682  0.9260  -1.0818   0.0000   0.0000   0.0000   0.4198
   1.600   0.8344   0.00758   0.00312  -0.1429  0.6659  0.9655  -1.0940   0.0000   0.0000   0.0000   0.4174
   1.700   0.8490   0.00757   0.00310  -0.1437  0.6637  1.0000  -1.1063   0.0000   0.0000   0.0000   0.4152
   1.800   0.8605   0.00760   0.00310  -0.1438  0.6617  1.0000  -1.1168   0.0000   0.0000   0.0000   0.4129
   1.900   0.8722   0.00763   0.00310  -0.1439  0.6600  1.0000  -1.1279   0.0000   0.0000   0.0000   0.4107
   2.000   0.8834   0.00765   0.00312  -0.1440  0.6576  1.0000  -1.1388   0.0000   0.0000   0.0000   0.4085
   2.100   0.8947   0.00768   0.00314  -0.1440  0.6552  1.0000  -1.1498   0.0000   0.0000   0.0000   0.4064
   2.200   0.9060   0.00770   0.00315  -0.1441  0.6529  1.0000  -1.1608   0.0000   0.0000   0.0000   0.4043
   2.300   0.9174   0.00773   0.00316  -0.1441  0.6508  1.0000  -1.1720   0.0000   0.0000   0.0000   0.4023
   2.500   0.9400   0.00780   0.00319  -0.1442  0.6463  1.0000  -1.1954   0.0000   0.0000   0.0000   0.3983
   2.600   0.9512   0.00782   0.00322  -0.1443  0.6437  1.0000  -1.2073   0.0000   0.0000   0.0000   0.3964
   2.700   0.9624   0.00785   0.00324  -0.1443  0.6414  1.0000  -1.2193   0.0000   0.0000   0.0000   0.3946
   2.800   0.9737   0.00789   0.00324  -0.1444  0.6393  1.0000  -1.2314   0.0000   0.0000   0.0000   0.3928
   2.900   0.9848   0.00793   0.00327  -0.1444  0.6368  1.0000  -1.2434   0.0000   0.0000   0.0000   0.3910
   3.000   0.9959   0.00796   0.00330  -0.1444  0.6340  1.0000  -1.2556   0.0000   0.0000   0.0000   0.3892
   3.100   1.0070   0.00799   0.00333  -0.1444  0.6313  1.0000  -1.2683   0.0000   0.0000   0.0000   0.3875
   3.200   1.0181   0.00803   0.00334  -0.1444  0.6290  1.0000  -1.2811   0.0000   0.0000   0.0000   0.3858
   3.300   1.0292   0.00807   0.00337  -0.1444  0.6265  1.0000  -1.2938   0.0000   0.0000   0.0000   0.3842
   3.400   1.0401   0.00810   0.00341  -0.1444  0.6234  1.0000  -1.3067   0.0000   0.0000   0.0000   0.3826
   3.500   1.0511   0.00814   0.00344  -0.1444  0.6206  1.0000  -1.3198   0.0000   0.0000   0.0000   0.3810
   3.600   1.0621   0.00819   0.00346  -0.1444  0.6181  1.0000  -1.3333   0.0000   0.0000   0.0000   0.3794
   3.700   1.0731   0.00823   0.00350  -0.1444  0.6152  1.0000  -1.3469   0.0000   0.0000   0.0000   0.3779
   3.800   1.0839   0.00827   0.00354  -0.1444  0.6120  1.0000  -1.3608   0.0000   0.0000   0.0000   0.3764
   3.900   1.0948   0.00831   0.00358  -0.1444  0.6090  1.0000  -1.3755   0.0000   0.0000   0.0000   0.3749
   4.100   1.1164   0.00841   0.00366  -0.1443  0.6030  1.0000  -1.4054   0.0000   0.0000   0.0000   0.3720
   4.200   1.1271   0.00846   0.00370  -0.1443  0.5996  1.0000  -1.4207   0.0000   0.0000   0.0000   0.3706
   4.300   1.1378   0.00852   0.00373  -0.1442  0.5966  1.0000  -1.4362   0.0000   0.0000   0.0000   0.3692
   4.400   1.1485   0.00857   0.00378  -0.1442  0.5931  1.0000  -1.4520   0.0000   0.0000   0.0000   0.3679
   4.500   1.1591   0.00861   0.00383  -0.1441  0.5894  1.0000  -1.4677   0.0000   0.0000   0.0000   0.3665
   4.600   1.1696   0.00868   0.00387  -0.1440  0.5860  1.0000  -1.4838   0.0000   0.0000   0.0000   0.3652
   4.700   1.1801   0.00874   0.00392  -0.1439  0.5824  1.0000  -1.5000   0.0000   0.0000   0.0000   0.3639
   4.800   1.1906   0.00879   0.00398  -0.1438  0.5784  1.0000  -1.5163   0.0000   0.0000   0.0000   0.3626
   4.900   1.2009   0.00886   0.00403  -0.1437  0.5748  1.0000  -1.5327   0.0000   0.0000   0.0000   0.3613
   5.000   1.2114   0.00892   0.00409  -0.1436  0.5709  1.0000  -1.5495   0.0000   0.0000   0.0000   0.3601
   5.100   1.2217   0.00899   0.00415  -0.1435  0.5668  1.0000  -1.5666   0.0000   0.0000   0.0000   0.3589
   5.300   1.2421   0.00913   0.00427  -0.1433  0.5588  1.0000  -1.6039   0.0000   0.0000   0.0000   0.3564
   5.400   1.2522   0.00921   0.00434  -0.1431  0.5547  1.0000  -1.6230   0.0000   0.0000   0.0000   0.3552
   5.500   1.2622   0.00929   0.00441  -0.1430  0.5506  1.0000  -1.6427   0.0000   0.0000   0.0000   0.3541
   5.600   1.2723   0.00937   0.00448  -0.1428  0.5461  1.0000  -1.6627   0.0000   0.0000   0.0000   0.3529
   5.700   1.2820   0.00946   0.00456  -0.1426  0.5419  1.0000  -1.6822   0.0000   0.0000   0.0000   0.3517
   5.800   1.2920   0.00954   0.00463  -0.1425  0.5371  1.0000  -1.7027   0.0000   0.0000   0.0000   0.3506
   5.900   1.3016   0.00964   0.00472  -0.1422  0.5324  1.0000  -1.7230   0.0000   0.0000   0.0000   0.3495
   6.000   1.3113   0.00973   0.00480  -0.1420  0.5275  1.0000  -1.7435   0.0000   0.0000   0.0000   0.3484
   6.100   1.3208   0.00983   0.00488  -0.1418  0.5222  1.0000  -1.7645   0.0000   0.0000   0.0000   0.3473
   6.200   1.3301   0.00994   0.00497  -0.1415  0.5171  1.0000  -1.7860   0.0000   0.0000   0.0000   0.3462
   6.300   1.3394   0.01005   0.00507  -0.1412  0.5116  1.0000  -1.8108   0.0000   0.0000   0.0000   0.3451
   6.400   1.3485   0.01016   0.00517  -0.1409  0.5063  1.0000  -1.8362   0.0000   0.0000   0.0000   0.3440
   6.500   1.3576   0.01028   0.00527  -0.1406  0.5006  1.0000  -1.8617   0.0000   0.0000   0.0000   0.3429
   6.600   1.3665   0.01040   0.00538  -0.1403  0.4953  1.0000  -1.8880   0.0000   0.0000   0.0000   0.3418
   6.700   1.3754   0.01053   0.00549  -0.1400  0.4896  1.0000  -1.9160   0.0000   0.0000   0.0000   0.3408
   6.800   1.3841   0.01066   0.00560  -0.1396  0.4842  1.0000  -1.9448   0.0000   0.0000   0.0000   0.3397
   6.900   1.3927   0.01080   0.00572  -0.1392  0.4784  1.0000  -1.9742   0.0000   0.0000   0.0000   0.3387
   7.000   1.4012   0.01093   0.00585  -0.1388  0.4727  1.0000  -2.0042   0.0000   0.0000   0.0000   0.3376
   7.100   1.4093   0.01109   0.00598  -0.1384  0.4668  1.0000  -2.0338   0.0000   0.0000   0.0000   0.3366
   7.200   1.4176   0.01123   0.00611  -0.1380  0.4608  1.0000  -2.0637   0.0000   0.0000   0.0000   0.3356
   7.300   1.4250   0.01141   0.00626  -0.1374  0.4547  1.0000  -2.0928   0.0000   0.0000   0.0000   0.3345
   7.400   1.4330   0.01156   0.00640  -0.1369  0.4479  1.0000  -2.1239   0.0000   0.0000   0.0000   0.3335
   7.500   1.4400   0.01175   0.00656  -0.1363  0.4413  1.0000  -2.1548   0.0000   0.0000   0.0000   0.3324
   7.600   1.4469   0.01194   0.00672  -0.1356  0.4342  1.0000  -2.1859   0.0000   0.0000   0.0000   0.3314
   7.700   1.4533   0.01212   0.00688  -0.1349  0.4273  1.0000  -2.2164   0.0000   0.0000   0.0000   0.3303
   7.800   1.4588   0.01234   0.00706  -0.1340  0.4209  1.0000  -2.2452   0.0000   0.0000   0.0000   0.3291
   7.900   1.4653   0.01253   0.00724  -0.1333  0.4140  1.0000  -2.2759   0.0000   0.0000   0.0000   0.3281
   8.000   1.4713   0.01274   0.00743  -0.1325  0.4078  1.0000  -2.3065   0.0000   0.0000   0.0000   0.3270
   8.100   1.4770   0.01297   0.00763  -0.1317  0.4014  1.0000  -2.3375   0.0000   0.0000   0.0000   0.3260
   8.200   1.4832   0.01318   0.00784  -0.1310  0.3950  1.0000  -2.3696   0.0000   0.0000   0.0000   0.3250
   8.300   1.4883   0.01345   0.00807  -0.1301  0.3888  1.0000  -2.3997   0.0000   0.0000   0.0000   0.3239
   8.400   1.4942   0.01369   0.00829  -0.1294  0.3820  1.0000  -2.4315   0.0000   0.0000   0.0000   0.3229
   8.500   1.4995   0.01396   0.00854  -0.1286  0.3757  1.0000  -2.4622   0.0000   0.0000   0.0000   0.3219
   8.600   1.5044   0.01425   0.00881  -0.1277  0.3692  1.0000  -2.4922   0.0000   0.0000   0.0000   0.3209
   8.700   1.5101   0.01452   0.00906  -0.1270  0.3627  1.0000  -2.5240   0.0000   0.0000   0.0000   0.3199
   8.800   1.5148   0.01483   0.00935  -0.1261  0.3566  1.0000  -2.5633   0.0000   0.0000   0.0000   0.3189
   8.900   1.5201   0.01513   0.00963  -0.1254  0.3501  1.0000  -2.6046   0.0000   0.0000   0.0000   0.3180
   9.000   1.5252   0.01544   0.00993  -0.1247  0.3441  1.0000  -2.6451   0.0000   0.0000   0.0000   0.3170
   9.100   1.5296   0.01579   0.01026  -0.1238  0.3379  1.0000  -2.6845   0.0000   0.0000   0.0000   0.3161
   9.200   1.5349   0.01611   0.01056  -0.1231  0.3315  1.0000  -2.7260   0.0000   0.0000   0.0000   0.3152
   9.300   1.5392   0.01649   0.01091  -0.1223  0.3255  1.0000  -2.7652   0.0000   0.0000   0.0000   0.3143
   9.400   1.5441   0.01684   0.01124  -0.1216  0.3191  1.0000  -2.8061   0.0000   0.0000   0.0000   0.3134
   9.500   1.5487   0.01721   0.01160  -0.1209  0.3131  1.0000  -2.8464   0.0000   0.0000   0.0000   0.3125
   9.600   1.5525   0.01763   0.01199  -0.1200  0.3069  1.0000  -2.8850   0.0000   0.0000   0.0000   0.3116
   9.700   1.5573   0.01800   0.01235  -0.1194  0.3006  1.0000  -2.9263   0.0000   0.0000   0.0000   0.3107
   9.800   1.5613   0.01843   0.01276  -0.1186  0.2946  1.0000  -2.9654   0.0000   0.0000   0.0000   0.3098
   9.900   1.5655   0.01885   0.01315  -0.1178  0.2884  1.0000  -3.0054   0.0000   0.0000   0.0000   0.3090
  10.000   1.5698   0.01927   0.01356  -0.1171  0.2825  1.0000  -3.0458   0.0000   0.0000   0.0000   0.3081
  10.200   1.5776   0.02017   0.01442  -0.1156  0.2705  1.0000  -3.1250   0.0000   0.0000   0.0000   0.3064
  10.300   1.5812   0.02064   0.01488  -0.1149  0.2649  1.0000  -3.1639   0.0000   0.0000   0.0000   0.3056
  10.400   1.5848   0.02112   0.01533  -0.1141  0.2590  1.0000  -3.2031   0.0000   0.0000   0.0000   0.3048
  10.500   1.5886   0.02159   0.01579  -0.1134  0.2532  1.0000  -3.2430   0.0000   0.0000   0.0000   0.3040
  10.600   1.5915   0.02213   0.01630  -0.1126  0.2476  1.0000  -3.2803   0.0000   0.0000   0.0000   0.3032
  10.700   1.5953   0.02261   0.01677  -0.1119  0.2414  1.0000  -3.3215   0.0000   0.0000   0.0000   0.3024
  10.800   1.5984   0.02313   0.01727  -0.1112  0.2357  1.0000  -3.3622   0.0000   0.0000   0.0000   0.3016
  10.900   1.6008   0.02371   0.01782  -0.1104  0.2298  1.0000  -3.4011   0.0000   0.0000   0.0000   0.3008
  11.000   1.6042   0.02423   0.01833  -0.1096  0.2236  1.0000  -3.4428   0.0000   0.0000   0.0000   0.3000
  11.100   1.6067   0.02481   0.01889  -0.1089  0.2178  1.0000  -3.4821   0.0000   0.0000   0.0000   0.2992
  11.200   1.6089   0.02542   0.01947  -0.1081  0.2118  1.0000  -3.5206   0.0000   0.0000   0.0000   0.2984
  11.300   1.6117   0.02599   0.02003  -0.1073  0.2057  1.0000  -3.5612   0.0000   0.0000   0.0000   0.2976
  11.400   1.6139   0.02661   0.02062  -0.1066  0.1999  1.0000  -3.5999   0.0000   0.0000   0.0000   0.2969
  11.500   1.6156   0.02726   0.02124  -0.1057  0.1942  1.0000  -3.6373   0.0000   0.0000   0.0000   0.2961
  11.600   1.6182   0.02785   0.02182  -0.1050  0.1884  1.0000  -3.6775   0.0000   0.0000   0.0000   0.2954
  11.700   1.6201   0.02851   0.02245  -0.1043  0.1831  1.0000  -3.7156   0.0000   0.0000   0.0000   0.2946
  11.800   1.6220   0.02916   0.02308  -0.1035  0.1777  1.0000  -3.7539   0.0000   0.0000   0.0000   0.2939
  11.900   1.6245   0.02978   0.02369  -0.1028  0.1726  1.0000  -3.7939   0.0000   0.0000   0.0000   0.2931
  12.000   1.6260   0.03047   0.02437  -0.1020  0.1679  1.0000  -3.8312   0.0000   0.0000   0.0000   0.2924
  12.100   1.6284   0.03111   0.02499  -0.1013  0.1629  1.0000  -3.8714   0.0000   0.0000   0.0000   0.2917
  12.200   1.6302   0.03179   0.02566  -0.1006  0.1585  1.0000  -3.9095   0.0000   0.0000   0.0000   0.2910
  12.300   1.6319   0.03248   0.02633  -0.0999  0.1538  1.0000  -3.9477   0.0000   0.0000   0.0000   0.2903
  12.400   1.6339   0.03316   0.02701  -0.0992  0.1494  1.0000  -3.9868   0.0000   0.0000   0.0000   0.2896
  12.500   1.6351   0.03390   0.02773  -0.0985  0.1451  1.0000  -4.0234   0.0000   0.0000   0.0000   0.2889
  12.600   1.6373   0.03458   0.02840  -0.0979  0.1406  1.0000  -4.0637   0.0000   0.0000   0.0000   0.2882
  12.700   1.6385   0.03535   0.02916  -0.0972  0.1366  1.0000  -4.1004   0.0000   0.0000   0.0000   0.2875
  12.800   1.6406   0.03605   0.02985  -0.0966  0.1322  1.0000  -4.1403   0.0000   0.0000   0.0000   0.2869
  12.900   1.6420   0.03682   0.03062  -0.0959  0.1284  1.0000  -4.1777   0.0000   0.0000   0.0000   0.2862
  13.000   1.6438   0.03757   0.03136  -0.0953  0.1243  1.0000  -4.2166   0.0000   0.0000   0.0000   0.2856
  13.100   1.6452   0.03835   0.03213  -0.0947  0.1207  1.0000  -4.2544   0.0000   0.0000   0.0000   0.2849
  13.200   1.6466   0.03913   0.03291  -0.0941  0.1169  1.0000  -4.2921   0.0000   0.0000   0.0000   0.2843
  13.300   1.6480   0.03992   0.03369  -0.0935  0.1134  1.0000  -4.3302   0.0000   0.0000   0.0000   0.2837
  13.400   1.6492   0.04074   0.03451  -0.0929  0.1099  1.0000  -4.3672   0.0000   0.0000   0.0000   0.2831
  13.500   1.6506   0.04155   0.03532  -0.0923  0.1066  1.0000  -4.4052   0.0000   0.0000   0.0000   0.2825
  13.600   1.6517   0.04240   0.03616  -0.0917  0.1033  1.0000  -4.4422   0.0000   0.0000   0.0000   0.2819
  13.700   1.6529   0.04325   0.03701  -0.0912  0.1003  1.0000  -4.4815   0.0000   0.0000   0.0000   0.2813
  13.800   1.6542   0.04410   0.03786  -0.0907  0.0972  1.0000  -4.5217   0.0000   0.0000   0.0000   0.2807
  13.900   1.6549   0.04500   0.03876  -0.0901  0.0944  1.0000  -4.5601   0.0000   0.0000   0.0000   0.2801
  14.000   1.6564   0.04584   0.03961  -0.0896  0.0915  1.0000  -4.6012   0.0000   0.0000   0.0000   0.2796
  14.100   1.6566   0.04681   0.04057  -0.0891  0.0889  1.0000  -4.6377   0.0000   0.0000   0.0000   0.2790
  14.200   1.6583   0.04765   0.04142  -0.0886  0.0862  1.0000  -4.6808   0.0000   0.0000   0.0000   0.2785
  14.300   1.6587   0.04861   0.04237  -0.0881  0.0837  1.0000  -4.7231   0.0000   0.0000   0.0000   0.2779
  14.400   1.6597   0.04951   0.04329  -0.0877  0.0813  1.0000  -4.7682   0.0000   0.0000   0.0000   0.2774
  14.500   1.6605   0.05045   0.04423  -0.0872  0.0789  1.0000  -4.8124   0.0000   0.0000   0.0000   0.2769
  14.600   1.6605   0.05148   0.04526  -0.0867  0.0768  1.0000  -4.8532   0.0000   0.0000   0.0000   0.2764
  14.700   1.6619   0.05238   0.04618  -0.0863  0.0746  1.0000  -4.9001   0.0000   0.0000   0.0000   0.2759
  14.800   1.6622   0.05339   0.04719  -0.0859  0.0725  1.0000  -4.9427   0.0000   0.0000   0.0000   0.2754
  14.900   1.6624   0.05443   0.04824  -0.0855  0.0707  1.0000  -4.9845   0.0000   0.0000   0.0000   0.2749
  15.000   1.6635   0.05537   0.04920  -0.0851  0.0688  1.0000  -5.0306   0.0000   0.0000   0.0000   0.2744
  15.100   1.6636   0.05643   0.05027  -0.0847  0.0670  1.0000  -5.0722   0.0000   0.0000   0.0000   0.2739
  15.200   1.6634   0.05754   0.05138  -0.0844  0.0655  1.0000  -5.1125   0.0000   0.0000   0.0000   0.2735
  15.300   1.6646   0.05849   0.05236  -0.0840  0.0637  1.0000  -5.1593   0.0000   0.0000   0.0000   0.2730
  15.400   1.6648   0.05958   0.05345  -0.0837  0.0622  1.0000  -5.2013   0.0000   0.0000   0.0000   0.2726
  15.500   1.6640   0.06076   0.05464  -0.0833  0.0609  1.0000  -5.2391   0.0000   0.0000   0.0000   0.2721
  15.600   1.6647   0.06178   0.05569  -0.0830  0.0595  1.0000  -5.2839   0.0000   0.0000   0.0000   0.2717
  15.700   1.6652   0.06284   0.05677  -0.0827  0.0581  1.0000  -5.3273   0.0000   0.0000   0.0000   0.2713
  15.800   1.6649   0.06398   0.05792  -0.0824  0.0568  1.0000  -5.3677   0.0000   0.0000   0.0000   0.2709
  15.900   1.6636   0.06525   0.05921  -0.0821  0.0557  1.0000  -5.4032   0.0000   0.0000   0.0000   0.2705
  16.000   1.6640   0.06634   0.06032  -0.0819  0.0546  1.0000  -5.4466   0.0000   0.0000   0.0000   0.2701
  16.100   1.6645   0.06742   0.06144  -0.0816  0.0534  1.0000  -5.4903   0.0000   0.0000   0.0000   0.2697
  16.200   1.6640   0.06863   0.06266  -0.0814  0.0523  1.0000  -5.5298   0.0000   0.0000   0.0000   0.2693
  16.300   1.6629   0.06992   0.06397  -0.0812  0.0513  1.0000  -5.5661   0.0000   0.0000   0.0000   0.2690
  16.400   1.6613   0.07129   0.06535  -0.0809  0.0504  1.0000  -5.5998   0.0000   0.0000   0.0000   0.2687
  16.500   1.6622   0.07235   0.06645  -0.0808  0.0493  1.0000  -5.6455   0.0000   0.0000   0.0000   0.2683
  16.600   1.6621   0.07354   0.06767  -0.0806  0.0483  1.0000  -5.6865   0.0000   0.0000   0.0000   0.2680
  16.700   1.6611   0.07485   0.06899  -0.0804  0.0473  1.0000  -5.7236   0.0000   0.0000   0.0000   0.2676
  16.800   1.6595   0.07624   0.07040  -0.0803  0.0465  1.0000  -5.7572   0.0000   0.0000   0.0000   0.2674
  16.900   1.6570   0.07775   0.07193  -0.0801  0.0458  1.0000  -5.7866   0.0000   0.0000   0.0000   0.2671
  17.000   1.6578   0.07884   0.07306  -0.0800  0.0448  1.0000  -5.8319   0.0000   0.0000   0.0000   0.2668
  17.100   1.6574   0.08009   0.07435  -0.0799  0.0439  1.0000  -5.8713   0.0000   0.0000   0.0000   0.2665
  17.200   1.6563   0.08144   0.07572  -0.0798  0.0430  1.0000  -5.9072   0.0000   0.0000   0.0000   0.2662
  17.300   1.6544   0.08289   0.07719  -0.0798  0.0423  1.0000  -5.9395   0.0000   0.0000   0.0000   0.2660
  17.400   1.6513   0.08451   0.07882  -0.0797  0.0416  1.0000  -5.9654   0.0000   0.0000   0.0000   0.2658
  17.500   1.6504   0.08586   0.08021  -0.0797  0.0409  1.0000  -6.0021   0.0000   0.0000   0.0000   0.2655
  17.600   1.6502   0.08712   0.08151  -0.0797  0.0400  1.0000  -6.0420   0.0000   0.0000   0.0000   0.2653
  17.700   1.6493   0.08849   0.08291  -0.0796  0.0392  1.0000  -6.0786   0.0000   0.0000   0.0000   0.2651
  17.800   1.6475   0.08998   0.08442  -0.0797  0.0385  1.0000  -6.1106   0.0000   0.0000   0.0000   0.2649
  17.900   1.6449   0.09157   0.08603  -0.0797  0.0379  1.0000  -6.1390   0.0000   0.0000   0.0000   0.2647
  18.000   1.6412   0.09334   0.08782  -0.0798  0.0373  1.0000  -6.1602   0.0000   0.0000   0.0000   0.2646
  18.100   1.6397   0.09482   0.08933  -0.0799  0.0367  1.0000  -6.1930   0.0000   0.0000   0.0000   0.2645
  18.200   1.6392   0.09616   0.09072  -0.0800  0.0360  1.0000  -6.2306   0.0000   0.0000   0.0000   0.2643
  18.300   1.6379   0.09761   0.09220  -0.0801  0.0353  1.0000  -6.2646   0.0000   0.0000   0.0000   0.2641
  18.400   1.6360   0.09914   0.09377  -0.0802  0.0347  1.0000  -6.2954   0.0000   0.0000   0.0000   0.2640
  18.500   1.6334   0.10080   0.09545  -0.0804  0.0342  1.0000  -6.3217   0.0000   0.0000   0.0000   0.2639
  18.600   1.6300   0.10255   0.09722  -0.0806  0.0337  1.0000  -6.3439   0.0000   0.0000   0.0000   0.2639
  18.700   1.6254   0.10447   0.09917  -0.0808  0.0333  1.0000  -6.3590   0.0000   0.0000   0.0000   0.2640
  18.800   1.6232   0.10607   0.10080  -0.0810  0.0328  1.0000  -6.3866   0.0000   0.0000   0.0000   0.2639
  18.900   1.6222   0.10751   0.10229  -0.0812  0.0322  1.0000  -6.4205   0.0000   0.0000   0.0000   0.2638
  19.000   1.6209   0.10901   0.10382  -0.0814  0.0317  1.0000  -6.4527   0.0000   0.0000   0.0000   0.2637
  19.100   1.6190   0.11060   0.10545  -0.0817  0.0312  1.0000  -6.4817   0.0000   0.0000   0.0000   0.2637
  19.200   1.6166   0.11225   0.10713  -0.0820  0.0307  1.0000  -6.5082   0.0000   0.0000   0.0000   0.2637
  19.300   1.6136   0.11401   0.10891  -0.0824  0.0303  1.0000  -6.5310   0.0000   0.0000   0.0000   0.2637
  19.400   1.6101   0.11585   0.11078  -0.0828  0.0299  1.0000  -6.5502   0.0000   0.0000   0.0000   0.2638
  19.500   1.6056   0.11785   0.11281  -0.0832  0.0296  1.0000  -6.5634   0.0000   0.0000   0.0000   0.2640
  19.600   1.6016   0.11980   0.11478  -0.0837  0.0292  1.0000  -6.5780   0.0000   0.0000   0.0000   0.2641
  19.700   1.6008   0.12126   0.11629  -0.0840  0.0288  1.0000  -6.6113   0.0000   0.0000   0.0000   0.2641
  19.800   1.5995   0.12280   0.11787  -0.0844  0.0284  1.0000  -6.6415   0.0000   0.0000   0.0000   0.2641
  19.900   1.5979   0.12439   0.11950  -0.0848  0.0280  1.0000  -6.6698   0.0000   0.0000   0.0000   0.2642
  20.000   1.5959   0.12604   0.12118  -0.0853  0.0276  1.0000  -6.6964   0.0000   0.0000   0.0000   0.2643


