xflr5 v6.57

 Calculated polar for: reaf

 1 1 Reynolds number fixed          Mach number fixed         

 xtrf =   1.000 (top)        1.000 (bottom)
 Mach =   0.000     Re =     0.420 e 6     Ncrit =   9.000

  alpha     CL        CD       CDp       Cm    Top Xtr Bot Xtr   Cpmin    Chinge    XCp    
 ------- -------- --------- --------- -------- ------- ------- -------- --------- ---------
  -9.900  -0.3360   0.04662   0.04328  -0.1191  0.8451  0.0296  -4.6133   0.0000   0.0000   0.0000  -0.1304
  -9.800  -0.3439   0.04208   0.03857  -0.1272  0.8421  0.0295  -4.7479   0.0000   0.0000   0.0000  -0.1446
  -9.700  -0.3523   0.03812   0.03436  -0.1318  0.8399  0.0294  -4.8829   0.0000   0.0000   0.0000  -0.1483
  -9.600  -0.3574   0.03473   0.03064  -0.1348  0.8382  0.0295  -4.9949   0.0000   0.0000   0.0000  -0.1509
  -9.500  -0.3582   0.03208   0.02767  -0.1368  0.8362  0.0296  -5.0666   0.0000   0.0000   0.0000  -0.1553
  -9.400  -0.3554   0.03015   0.02545  -0.1379  0.8343  0.0297  -5.0975   0.0000   0.0000   0.0000  -0.1615
  -9.300  -0.3507   0.02857   0.02366  -0.1387  0.8327  0.0299  -5.0954   0.0000   0.0000   0.0000  -0.1689
  -9.200  -0.3434   0.02756   0.02257  -0.1390  0.8314  0.0301  -5.0477   0.0000   0.0000   0.0000  -0.1784
  -9.100  -0.3344   0.02706   0.02205  -0.1392  0.8302  0.0303  -4.9725   0.0000   0.0000   0.0000  -0.1901
  -9.000  -0.3248   0.02674   0.02172  -0.1393  0.8292  0.0306  -4.8891   0.0000   0.0000   0.0000  -0.2031
  -8.900  -0.3146   0.02658   0.02158  -0.1394  0.8278  0.0308  -4.7978   0.0000   0.0000   0.0000  -0.2177
  -8.800  -0.3044   0.02640   0.02142  -0.1395  0.8262  0.0311  -4.7097   0.0000   0.0000   0.0000  -0.2332
  -8.700  -0.2947   0.02608   0.02107  -0.1396  0.8248  0.0314  -4.6321   0.0000   0.0000   0.0000  -0.2493
  -8.600  -0.2853   0.02559   0.02050  -0.1398  0.8234  0.0317  -4.5663   0.0000   0.0000   0.0000  -0.2660
  -8.500  -0.2763   0.02494   0.01974  -0.1401  0.8222  0.0321  -4.5115   0.0000   0.0000   0.0000  -0.2833
  -8.400  -0.2674   0.02419   0.01884  -0.1403  0.8210  0.0325  -4.4641   0.0000   0.0000   0.0000  -0.3016
  -8.300  -0.2584   0.02341   0.01789  -0.1405  0.8200  0.0328  -4.4200   0.0000   0.0000   0.0000  -0.3213
  -8.200  -0.2492   0.02266   0.01699  -0.1407  0.8186  0.0331  -4.3755   0.0000   0.0000   0.0000  -0.3427
  -8.100  -0.2397   0.02200   0.01618  -0.1409  0.8170  0.0334  -4.3276   0.0000   0.0000   0.0000  -0.3663
  -8.000  -0.2299   0.02145   0.01547  -0.1410  0.8156  0.0337  -4.2762   0.0000   0.0000   0.0000  -0.3928
  -7.900  -0.2200   0.02089   0.01477  -0.1411  0.8142  0.0340  -4.2296   0.0000   0.0000   0.0000  -0.4217
  -7.800  -0.2104   0.02022   0.01408  -0.1412  0.8131  0.0343  -4.1730   0.0000   0.0000   0.0000  -0.4526
  -7.700  -0.2000   0.01985   0.01369  -0.1413  0.8120  0.0346  -4.1039   0.0000   0.0000   0.0000  -0.4888
  -7.600  -0.1894   0.01956   0.01337  -0.1413  0.8110  0.0349  -4.0329   0.0000   0.0000   0.0000  -0.5300
  -7.500  -0.1788   0.01929   0.01307  -0.1414  0.8099  0.0353  -3.9631   0.0000   0.0000   0.0000  -0.5763
  -7.400  -0.1682   0.01903   0.01279  -0.1415  0.8084  0.0356  -3.8952   0.0000   0.0000   0.0000  -0.6279
  -7.300  -0.1575   0.01878   0.01252  -0.1415  0.8069  0.0361  -3.8271   0.0000   0.0000   0.0000  -0.6871
  -7.200  -0.1468   0.01852   0.01221  -0.1416  0.8056  0.0366  -3.7612   0.0000   0.0000   0.0000  -0.7553
  -7.100  -0.1360   0.01825   0.01186  -0.1417  0.8044  0.0371  -3.6981   0.0000   0.0000   0.0000  -0.8348
  -7.000  -0.1251   0.01797   0.01149  -0.1417  0.8033  0.0376  -3.6372   0.0000   0.0000   0.0000  -0.9288
  -6.900  -0.1140   0.01774   0.01114  -0.1418  0.8022  0.0381  -3.5765   0.0000   0.0000   0.0000  -1.0428
  -6.800  -0.1034   0.01732   0.01066  -0.1418  0.8013  0.0386  -3.5180   0.0000   0.0000   0.0000  -1.1757
  -6.700  -0.0929   0.01697   0.01032  -0.1419  0.8001  0.0390  -3.4518   0.0000   0.0000   0.0000  -1.3364
  -6.600  -0.0822   0.01674   0.01011  -0.1419  0.7985  0.0395  -3.3834   0.0000   0.0000   0.0000  -1.5420
  -6.500  -0.0713   0.01653   0.00990  -0.1420  0.7971  0.0399  -3.3153   0.0000   0.0000   0.0000  -1.8143
  -6.400  -0.0604   0.01633   0.00968  -0.1420  0.7958  0.0405  -3.2486   0.0000   0.0000   0.0000  -2.1888
  -6.300  -0.0493   0.01613   0.00943  -0.1420  0.7946  0.0410  -3.1833   0.0000   0.0000   0.0000  -2.7339
  -6.200  -0.0382   0.01592   0.00918  -0.1421  0.7935  0.0416  -3.1235   0.0000   0.0000   0.0000  -3.6001
  -6.100  -0.0270   0.01572   0.00891  -0.1421  0.7925  0.0423  -3.0677   0.0000   0.0000   0.0000  -5.2003
  -6.000  -0.0156   0.01555   0.00867  -0.1421  0.7916  0.0428  -3.0119   0.0000   0.0000   0.0000  -9.1794
  -5.900  -0.0050   0.01524   0.00835  -0.1422  0.7902  0.0434  -2.9582   0.0000   0.0000   0.0000  -29.2605
  -5.800   0.0057   0.01501   0.00816  -0.1422  0.7887  0.0441  -2.8973   0.0000   0.0000   0.0000  26.0488
  -5.700   0.0167   0.01487   0.00803  -0.1423  0.7873  0.0448  -2.8346   0.0000   0.0000   0.0000   9.0417
  -5.600   0.0279   0.01473   0.00788  -0.1423  0.7860  0.0457  -2.7733   0.0000   0.0000   0.0000   5.5185
  -5.500   0.0391   0.01459   0.00771  -0.1424  0.7848  0.0466  -2.7143   0.0000   0.0000   0.0000   4.0009
  -5.400   0.0505   0.01446   0.00752  -0.1424  0.7838  0.0474  -2.6568   0.0000   0.0000   0.0000   3.1555
  -5.300   0.0619   0.01430   0.00731  -0.1424  0.7828  0.0482  -2.6009   0.0000   0.0000   0.0000   2.6209
  -5.200   0.0729   0.01404   0.00706  -0.1425  0.7819  0.0491  -2.5430   0.0000   0.0000   0.0000   2.2627
  -5.100   0.0838   0.01389   0.00694  -0.1425  0.7805  0.0499  -2.4839   0.0000   0.0000   0.0000   1.9999
  -5.000   0.0948   0.01377   0.00682  -0.1426  0.7789  0.0508  -2.4258   0.0000   0.0000   0.0000   1.7959
  -4.900   0.1060   0.01364   0.00668  -0.1426  0.7775  0.0519  -2.3688   0.0000   0.0000   0.0000   1.6323
  -4.800   0.1173   0.01353   0.00653  -0.1426  0.7762  0.0529  -2.3127   0.0000   0.0000   0.0000   1.4981
  -4.700   0.1284   0.01333   0.00633  -0.1427  0.7750  0.0540  -2.2605   0.0000   0.0000   0.0000   1.3900
  -4.600   0.1397   0.01318   0.00620  -0.1428  0.7739  0.0552  -2.2064   0.0000   0.0000   0.0000   1.2981
  -4.500   0.1511   0.01308   0.00608  -0.1428  0.7730  0.0565  -2.1526   0.0000   0.0000   0.0000   1.2184
  -4.400   0.1628   0.01299   0.00595  -0.1429  0.7721  0.0580  -2.1006   0.0000   0.0000   0.0000   1.1491
  -4.300   0.1737   0.01287   0.00583  -0.1429  0.7705  0.0594  -2.0518   0.0000   0.0000   0.0000   1.0920
  -4.200   0.1847   0.01271   0.00571  -0.1430  0.7689  0.0608  -2.0003   0.0000   0.0000   0.0000   1.0420
  -4.100   0.1959   0.01261   0.00562  -0.1430  0.7675  0.0624  -1.9488   0.0000   0.0000   0.0000   0.9963
  -4.000   0.2073   0.01253   0.00551  -0.1431  0.7662  0.0641  -1.8986   0.0000   0.0000   0.0000   0.9551
  -3.900   0.2186   0.01238   0.00537  -0.1431  0.7650  0.0659  -1.8486   0.0000   0.0000   0.0000   0.9185
  -3.800   0.2301   0.01227   0.00526  -0.1432  0.7639  0.0679  -1.7966   0.0000   0.0000   0.0000   0.8852
  -3.700   0.2417   0.01220   0.00515  -0.1433  0.7629  0.0703  -1.7457   0.0000   0.0000   0.0000   0.8545
  -3.600   0.2533   0.01207   0.00503  -0.1434  0.7619  0.0726  -1.6957   0.0000   0.0000   0.0000   0.8271
  -3.500   0.2642   0.01199   0.00498  -0.1434  0.7602  0.0752  -1.6464   0.0000   0.0000   0.0000   0.8029
  -3.400   0.2754   0.01190   0.00489  -0.1435  0.7587  0.0781  -1.5982   0.0000   0.0000   0.0000   0.7802
  -3.300   0.2867   0.01179   0.00481  -0.1435  0.7572  0.0812  -1.5487   0.0000   0.0000   0.0000   0.7593
  -3.200   0.2981   0.01170   0.00472  -0.1436  0.7559  0.0851  -1.5001   0.0000   0.0000   0.0000   0.7397
  -3.100   0.3096   0.01160   0.00463  -0.1437  0.7547  0.0893  -1.4543   0.0000   0.0000   0.0000   0.7215
  -3.000   0.3212   0.01150   0.00454  -0.1438  0.7536  0.0942  -1.4095   0.0000   0.0000   0.0000   0.7045
  -2.900   0.3329   0.01141   0.00444  -0.1439  0.7527  0.1001  -1.3649   0.0000   0.0000   0.0000   0.6886
  -2.800   0.3442   0.01132   0.00439  -0.1440  0.7513  0.1068  -1.3211   0.0000   0.0000   0.0000   0.6741
  -2.700   0.3553   0.01124   0.00435  -0.1440  0.7496  0.1147  -1.2779   0.0000   0.0000   0.0000   0.6608
  -2.600   0.3665   0.01114   0.00430  -0.1441  0.7480  0.1239  -1.2344   0.0000   0.0000   0.0000   0.6481
  -2.500   0.3779   0.01105   0.00425  -0.1442  0.7466  0.1346  -1.1908   0.0000   0.0000   0.0000   0.6361
  -2.400   0.3893   0.01096   0.00419  -0.1443  0.7453  0.1468  -1.1471   0.0000   0.0000   0.0000   0.6248
  -2.300   0.4009   0.01087   0.00414  -0.1444  0.7441  0.1599  -1.1033   0.0000   0.0000   0.0000   0.6140
  -2.200   0.4126   0.01078   0.00408  -0.1445  0.7430  0.1741  -1.0596   0.0000   0.0000   0.0000   0.6038
  -2.100   0.4243   0.01071   0.00404  -0.1446  0.7419  0.1887  -1.0162   0.0000   0.0000   0.0000   0.5941
  -2.000   0.4351   0.01064   0.00404  -0.1447  0.7400  0.2034  -0.9755   0.0000   0.0000   0.0000   0.5853
  -1.900   0.4463   0.01057   0.00402  -0.1447  0.7384  0.2187  -0.9368   0.0000   0.0000   0.0000   0.5769
  -1.800   0.4576   0.01050   0.00400  -0.1448  0.7368  0.2354  -0.8980   0.0000   0.0000   0.0000   0.5687
  -1.700   0.4691   0.01042   0.00397  -0.1449  0.7354  0.2528  -0.8593   0.0000   0.0000   0.0000   0.5609
  -1.600   0.4807   0.01035   0.00393  -0.1450  0.7342  0.2712  -0.8206   0.0000   0.0000   0.0000   0.5535
  -1.500   0.4923   0.01027   0.00390  -0.1452  0.7331  0.2907  -0.8277   0.0000   0.0000   0.0000   0.5464
  -1.300   0.5148   0.01013   0.00389  -0.1453  0.7301  0.3347  -0.8425   0.0000   0.0000   0.0000   0.5333
  -1.200   0.5259   0.01005   0.00389  -0.1454  0.7283  0.3585  -0.8498   0.0000   0.0000   0.0000   0.5272
  -1.100   0.5371   0.00997   0.00389  -0.1454  0.7267  0.3839  -0.8572   0.0000   0.0000   0.0000   0.5213
  -1.000   0.5485   0.00989   0.00388  -0.1455  0.7252  0.4112  -0.8648   0.0000   0.0000   0.0000   0.5157
  -0.900   0.5600   0.00980   0.00386  -0.1456  0.7239  0.4398  -0.8728   0.0000   0.0000   0.0000   0.5102
  -0.800   0.5715   0.00972   0.00384  -0.1457  0.7227  0.4697  -0.8809   0.0000   0.0000   0.0000   0.5049
  -0.700   0.5829   0.00965   0.00384  -0.1458  0.7214  0.5001  -0.8889   0.0000   0.0000   0.0000   0.4998
  -0.600   0.5935   0.00958   0.00388  -0.1457  0.7194  0.5299  -0.8963   0.0000   0.0000   0.0000   0.4951
  -0.500   0.6044   0.00951   0.00391  -0.1456  0.7176  0.5594  -0.9040   0.0000   0.0000   0.0000   0.4904
  -0.400   0.6153   0.00944   0.00392  -0.1456  0.7159  0.5886  -0.9119   0.0000   0.0000   0.0000   0.4859
  -0.300   0.6264   0.00937   0.00392  -0.1456  0.7145  0.6173  -0.9200   0.0000   0.0000   0.0000   0.4814
  -0.200   0.6376   0.00931   0.00393  -0.1455  0.7131  0.6458  -0.9282   0.0000   0.0000   0.0000   0.4771
  -0.100   0.6488   0.00927   0.00392  -0.1455  0.7119  0.6725  -0.9365   0.0000   0.0000   0.0000   0.4729
   0.000   0.6593   0.00924   0.00397  -0.1453  0.7101  0.6963  -0.9444   0.0000   0.0000   0.0000   0.4689
   0.100   0.6697   0.00920   0.00400  -0.1451  0.7081  0.7188  -0.9526   0.0000   0.0000   0.0000   0.4651
   0.200   0.6802   0.00917   0.00402  -0.1449  0.7063  0.7394  -0.9610   0.0000   0.0000   0.0000   0.4613
   0.300   0.6908   0.00913   0.00403  -0.1447  0.7047  0.7592  -0.9696   0.0000   0.0000   0.0000   0.4576
   0.400   0.7016   0.00910   0.00402  -0.1445  0.7032  0.7787  -0.9783   0.0000   0.0000   0.0000   0.4539
   0.500   0.7123   0.00906   0.00401  -0.1443  0.7019  0.7969  -0.9869   0.0000   0.0000   0.0000   0.4504
   0.600   0.7222   0.00903   0.00403  -0.1440  0.7001  0.8149  -0.9951   0.0000   0.0000   0.0000   0.4470
   0.700   0.7318   0.00901   0.00406  -0.1436  0.6980  0.8335  -1.0032   0.0000   0.0000   0.0000   0.4437
   0.800   0.7413   0.00897   0.00407  -0.1431  0.6961  0.8521  -1.0114   0.0000   0.0000   0.0000   0.4404
   0.900   0.7506   0.00892   0.00406  -0.1426  0.6943  0.8717  -1.0198   0.0000   0.0000   0.0000   0.4372
   1.000   0.7598   0.00887   0.00403  -0.1420  0.6928  0.8937  -1.0281   0.0000   0.0000   0.0000   0.4339
   1.100   0.7695   0.00881   0.00399  -0.1415  0.6914  0.9196  -1.0368   0.0000   0.0000   0.0000   0.4308
   1.200   0.7827   0.00876   0.00397  -0.1418  0.6893  0.9543  -1.0475   0.0000   0.0000   0.0000   0.4279
   1.300   0.7991   0.00873   0.00395  -0.1430  0.6870  1.0000  -1.0603   0.0000   0.0000   0.0000   0.4255
   1.400   0.8106   0.00875   0.00395  -0.1431  0.6850  1.0000  -1.0707   0.0000   0.0000   0.0000   0.4230
   1.500   0.8224   0.00877   0.00393  -0.1432  0.6832  1.0000  -1.0813   0.0000   0.0000   0.0000   0.4205
   1.600   0.8343   0.00879   0.00391  -0.1434  0.6816  1.0000  -1.0921   0.0000   0.0000   0.0000   0.4180
   1.700   0.8459   0.00881   0.00391  -0.1435  0.6799  1.0000  -1.1026   0.0000   0.0000   0.0000   0.4157
   1.800   0.8568   0.00884   0.00395  -0.1435  0.6774  1.0000  -1.1126   0.0000   0.0000   0.0000   0.4134
   1.900   0.8681   0.00886   0.00396  -0.1435  0.6752  1.0000  -1.1234   0.0000   0.0000   0.0000   0.4111
   2.000   0.8796   0.00888   0.00396  -0.1436  0.6732  1.0000  -1.1345   0.0000   0.0000   0.0000   0.4089
   2.100   0.8913   0.00890   0.00394  -0.1437  0.6714  1.0000  -1.1458   0.0000   0.0000   0.0000   0.4068
   2.200   0.9029   0.00893   0.00394  -0.1438  0.6696  1.0000  -1.1570   0.0000   0.0000   0.0000   0.4047
   2.300   0.9136   0.00896   0.00398  -0.1438  0.6669  1.0000  -1.1677   0.0000   0.0000   0.0000   0.4026
   2.400   0.9247   0.00898   0.00400  -0.1438  0.6645  1.0000  -1.1792   0.0000   0.0000   0.0000   0.4006
   2.500   0.9361   0.00901   0.00400  -0.1439  0.6623  1.0000  -1.1910   0.0000   0.0000   0.0000   0.3987
   2.600   0.9478   0.00903   0.00400  -0.1440  0.6604  1.0000  -1.2033   0.0000   0.0000   0.0000   0.3967
   2.700   0.9589   0.00906   0.00402  -0.1440  0.6582  1.0000  -1.2152   0.0000   0.0000   0.0000   0.3949
   2.800   0.9697   0.00909   0.00406  -0.1440  0.6555  1.0000  -1.2269   0.0000   0.0000   0.0000   0.3930
   2.900   0.9808   0.00912   0.00407  -0.1440  0.6530  1.0000  -1.2388   0.0000   0.0000   0.0000   0.3912
   3.000   0.9921   0.00915   0.00408  -0.1440  0.6508  1.0000  -1.2512   0.0000   0.0000   0.0000   0.3895
   3.100   1.0037   0.00918   0.00407  -0.1441  0.6489  1.0000  -1.2644   0.0000   0.0000   0.0000   0.3877
   3.200   1.0142   0.00922   0.00413  -0.1440  0.6459  1.0000  -1.2765   0.0000   0.0000   0.0000   0.3860
   3.300   1.0251   0.00925   0.00416  -0.1440  0.6431  1.0000  -1.2891   0.0000   0.0000   0.0000   0.3844
   3.400   1.0362   0.00928   0.00418  -0.1440  0.6407  1.0000  -1.3022   0.0000   0.0000   0.0000   0.3827
   3.500   1.0476   0.00931   0.00418  -0.1441  0.6386  1.0000  -1.3157   0.0000   0.0000   0.0000   0.3811
   3.600   1.0581   0.00935   0.00423  -0.1440  0.6355  1.0000  -1.3287   0.0000   0.0000   0.0000   0.3796
   3.700   1.0689   0.00939   0.00427  -0.1439  0.6325  1.0000  -1.3421   0.0000   0.0000   0.0000   0.3780
   3.800   1.0799   0.00942   0.00429  -0.1439  0.6299  1.0000  -1.3562   0.0000   0.0000   0.0000   0.3765
   3.900   1.0912   0.00946   0.00429  -0.1440  0.6277  1.0000  -1.3711   0.0000   0.0000   0.0000   0.3750
   4.000   1.1015   0.00950   0.00436  -0.1438  0.6243  1.0000  -1.3854   0.0000   0.0000   0.0000   0.3735
   4.100   1.1121   0.00954   0.00440  -0.1438  0.6211  1.0000  -1.4003   0.0000   0.0000   0.0000   0.3721
   4.200   1.1231   0.00959   0.00442  -0.1438  0.6184  1.0000  -1.4158   0.0000   0.0000   0.0000   0.3707
   4.300   1.1338   0.00963   0.00446  -0.1437  0.6155  1.0000  -1.4312   0.0000   0.0000   0.0000   0.3693
   4.400   1.1442   0.00968   0.00452  -0.1436  0.6120  1.0000  -1.4467   0.0000   0.0000   0.0000   0.3679
   4.500   1.1548   0.00973   0.00455  -0.1435  0.6088  1.0000  -1.4624   0.0000   0.0000   0.0000   0.3665
   4.600   1.1657   0.00978   0.00457  -0.1435  0.6060  1.0000  -1.4787   0.0000   0.0000   0.0000   0.3652
   4.700   1.1759   0.00983   0.00464  -0.1434  0.6021  1.0000  -1.4946   0.0000   0.0000   0.0000   0.3639
   4.800   1.1863   0.00988   0.00469  -0.1433  0.5986  1.0000  -1.5109   0.0000   0.0000   0.0000   0.3626
   5.000   1.2070   0.00999   0.00480  -0.1430  0.5914  1.0000  -1.5440   0.0000   0.0000   0.0000   0.3600
   5.100   1.2173   0.01005   0.00485  -0.1429  0.5877  1.0000  -1.5610   0.0000   0.0000   0.0000   0.3588
   5.200   1.2277   0.01012   0.00489  -0.1428  0.5843  1.0000  -1.5794   0.0000   0.0000   0.0000   0.3576
   5.300   1.2377   0.01018   0.00496  -0.1426  0.5800  1.0000  -1.5978   0.0000   0.0000   0.0000   0.3563
   5.400   1.2478   0.01025   0.00502  -0.1425  0.5761  1.0000  -1.6170   0.0000   0.0000   0.0000   0.3551
   5.500   1.2579   0.01032   0.00508  -0.1423  0.5723  1.0000  -1.6365   0.0000   0.0000   0.0000   0.3540
   5.600   1.2678   0.01039   0.00515  -0.1421  0.5680  1.0000  -1.6562   0.0000   0.0000   0.0000   0.3528
   5.700   1.2777   0.01047   0.00522  -0.1419  0.5641  1.0000  -1.6760   0.0000   0.0000   0.0000   0.3516
   5.800   1.2876   0.01055   0.00530  -0.1418  0.5598  1.0000  -1.6961   0.0000   0.0000   0.0000   0.3505
   5.900   1.2973   0.01063   0.00538  -0.1415  0.5553  1.0000  -1.7165   0.0000   0.0000   0.0000   0.3493
   6.000   1.3070   0.01072   0.00545  -0.1413  0.5513  1.0000  -1.7370   0.0000   0.0000   0.0000   0.3482
   6.100   1.3165   0.01080   0.00554  -0.1411  0.5464  1.0000  -1.7580   0.0000   0.0000   0.0000   0.3471
   6.200   1.3259   0.01090   0.00561  -0.1408  0.5420  1.0000  -1.7794   0.0000   0.0000   0.0000   0.3460
   6.300   1.3353   0.01099   0.00571  -0.1405  0.5369  1.0000  -1.8035   0.0000   0.0000   0.0000   0.3449
   6.400   1.3444   0.01110   0.00580  -0.1402  0.5320  1.0000  -1.8289   0.0000   0.0000   0.0000   0.3438
   6.500   1.3536   0.01120   0.00590  -0.1399  0.5268  1.0000  -1.8544   0.0000   0.0000   0.0000   0.3427
   6.600   1.3624   0.01132   0.00600  -0.1396  0.5216  1.0000  -1.8804   0.0000   0.0000   0.0000   0.3416
   6.700   1.3713   0.01143   0.00611  -0.1392  0.5163  1.0000  -1.9077   0.0000   0.0000   0.0000   0.3406
   6.800   1.3800   0.01156   0.00622  -0.1388  0.5109  1.0000  -1.9364   0.0000   0.0000   0.0000   0.3395
   6.900   1.3886   0.01168   0.00633  -0.1385  0.5055  1.0000  -1.9654   0.0000   0.0000   0.0000   0.3384
   7.000   1.3970   0.01181   0.00645  -0.1380  0.5000  1.0000  -1.9952   0.0000   0.0000   0.0000   0.3374
   7.100   1.4054   0.01195   0.00657  -0.1376  0.4945  1.0000  -2.0251   0.0000   0.0000   0.0000   0.3363
   7.200   1.4134   0.01209   0.00670  -0.1371  0.4888  1.0000  -2.0547   0.0000   0.0000   0.0000   0.3353
   7.300   1.4215   0.01224   0.00684  -0.1367  0.4832  1.0000  -2.0844   0.0000   0.0000   0.0000   0.3343
   7.400   1.4290   0.01240   0.00698  -0.1361  0.4774  1.0000  -2.1147   0.0000   0.0000   0.0000   0.3332
   7.500   1.4368   0.01255   0.00713  -0.1356  0.4714  1.0000  -2.1460   0.0000   0.0000   0.0000   0.3322
   7.600   1.4437   0.01274   0.00728  -0.1350  0.4656  1.0000  -2.1771   0.0000   0.0000   0.0000   0.3311
   7.700   1.4510   0.01290   0.00744  -0.1344  0.4590  1.0000  -2.2089   0.0000   0.0000   0.0000   0.3301
   7.800   1.4572   0.01310   0.00761  -0.1336  0.4528  1.0000  -2.2390   0.0000   0.0000   0.0000   0.3290
   7.900   1.4629   0.01329   0.00778  -0.1327  0.4460  1.0000  -2.2684   0.0000   0.0000   0.0000   0.3279
   8.000   1.4686   0.01349   0.00797  -0.1319  0.4394  1.0000  -2.2977   0.0000   0.0000   0.0000   0.3268
   8.100   1.4736   0.01373   0.00817  -0.1309  0.4330  1.0000  -2.3272   0.0000   0.0000   0.0000   0.3257
   8.200   1.4795   0.01394   0.00838  -0.1301  0.4263  1.0000  -2.3587   0.0000   0.0000   0.0000   0.3246
   8.300   1.4845   0.01419   0.00860  -0.1292  0.4201  1.0000  -2.3886   0.0000   0.0000   0.0000   0.3235
   8.400   1.4899   0.01443   0.00883  -0.1284  0.4136  1.0000  -2.4193   0.0000   0.0000   0.0000   0.3225
   8.500   1.4951   0.01469   0.00907  -0.1275  0.4074  1.0000  -2.4499   0.0000   0.0000   0.0000   0.3215
   8.600   1.4997   0.01498   0.00933  -0.1266  0.4012  1.0000  -2.4793   0.0000   0.0000   0.0000   0.3204
   8.700   1.5050   0.01524   0.00959  -0.1258  0.3947  1.0000  -2.5102   0.0000   0.0000   0.0000   0.3194
   8.800   1.5093   0.01557   0.00989  -0.1249  0.3886  1.0000  -2.5441   0.0000   0.0000   0.0000   0.3184
   8.900   1.5142   0.01586   0.01017  -0.1241  0.3819  1.0000  -2.5841   0.0000   0.0000   0.0000   0.3175
   9.000   1.5187   0.01619   0.01048  -0.1233  0.3757  1.0000  -2.6233   0.0000   0.0000   0.0000   0.3165
   9.100   1.5228   0.01654   0.01082  -0.1224  0.3694  1.0000  -2.6614   0.0000   0.0000   0.0000   0.3155
   9.200   1.5276   0.01687   0.01113  -0.1216  0.3630  1.0000  -2.7017   0.0000   0.0000   0.0000   0.3146
   9.300   1.5314   0.01726   0.01150  -0.1207  0.3570  1.0000  -2.7394   0.0000   0.0000   0.0000   0.3136
   9.400   1.5360   0.01761   0.01184  -0.1200  0.3505  1.0000  -2.7796   0.0000   0.0000   0.0000   0.3127
   9.500   1.5402   0.01800   0.01221  -0.1192  0.3445  1.0000  -2.8185   0.0000   0.0000   0.0000   0.3118
   9.600   1.5439   0.01841   0.01260  -0.1183  0.3383  1.0000  -2.8566   0.0000   0.0000   0.0000   0.3109
   9.700   1.5483   0.01880   0.01298  -0.1176  0.3321  1.0000  -2.8965   0.0000   0.0000   0.0000   0.3100
   9.800   1.5515   0.01926   0.01342  -0.1167  0.3262  1.0000  -2.9335   0.0000   0.0000   0.0000   0.3091
   9.900   1.5558   0.01967   0.01381  -0.1160  0.3198  1.0000  -2.9736   0.0000   0.0000   0.0000   0.3083
  10.000   1.5594   0.02012   0.01425  -0.1152  0.3138  1.0000  -3.0118   0.0000   0.0000   0.0000   0.3074
  10.100   1.5626   0.02060   0.01471  -0.1144  0.3077  1.0000  -3.0493   0.0000   0.0000   0.0000   0.3065
  10.200   1.5664   0.02105   0.01515  -0.1136  0.3015  1.0000  -3.0885   0.0000   0.0000   0.0000   0.3057
  10.300   1.5692   0.02157   0.01565  -0.1128  0.2957  1.0000  -3.1249   0.0000   0.0000   0.0000   0.3048
  10.400   1.5730   0.02204   0.01611  -0.1121  0.2894  1.0000  -3.1643   0.0000   0.0000   0.0000   0.3040
  10.500   1.5762   0.02255   0.01660  -0.1113  0.2836  1.0000  -3.2021   0.0000   0.0000   0.0000   0.3032
  10.600   1.5789   0.02309   0.01712  -0.1105  0.2778  1.0000  -3.2389   0.0000   0.0000   0.0000   0.3024
  10.700   1.5823   0.02359   0.01762  -0.1098  0.2718  1.0000  -3.2776   0.0000   0.0000   0.0000   0.3016
  10.800   1.5846   0.02417   0.01817  -0.1089  0.2662  1.0000  -3.3134   0.0000   0.0000   0.0000   0.3008
  10.900   1.5879   0.02470   0.01869  -0.1082  0.2602  1.0000  -3.3542   0.0000   0.0000   0.0000   0.3000
  11.000   1.5906   0.02527   0.01924  -0.1074  0.2547  1.0000  -3.3935   0.0000   0.0000   0.0000   0.2992
  11.100   1.5929   0.02586   0.01982  -0.1067  0.2490  1.0000  -3.4320   0.0000   0.0000   0.0000   0.2984
  11.200   1.5959   0.02642   0.02037  -0.1060  0.2433  1.0000  -3.4725   0.0000   0.0000   0.0000   0.2976
  11.300   1.5976   0.02706   0.02099  -0.1051  0.2378  1.0000  -3.5095   0.0000   0.0000   0.0000   0.2968
  11.400   1.6002   0.02765   0.02157  -0.1044  0.2318  1.0000  -3.5490   0.0000   0.0000   0.0000   0.2961
  11.500   1.6023   0.02829   0.02219  -0.1036  0.2262  1.0000  -3.5871   0.0000   0.0000   0.0000   0.2953
  11.600   1.6036   0.02898   0.02286  -0.1028  0.2206  1.0000  -3.6230   0.0000   0.0000   0.0000   0.2946
  11.700   1.6059   0.02961   0.02347  -0.1021  0.2145  1.0000  -3.6623   0.0000   0.0000   0.0000   0.2938
  11.800   1.6074   0.03030   0.02415  -0.1013  0.2089  1.0000  -3.6989   0.0000   0.0000   0.0000   0.2931
  11.900   1.6086   0.03102   0.02485  -0.1006  0.2032  1.0000  -3.7347   0.0000   0.0000   0.0000   0.2924
  12.000   1.6105   0.03169   0.02551  -0.0998  0.1974  1.0000  -3.7728   0.0000   0.0000   0.0000   0.2916
  12.100   1.6115   0.03243   0.02623  -0.0991  0.1920  1.0000  -3.8081   0.0000   0.0000   0.0000   0.2909
  12.200   1.6127   0.03317   0.02695  -0.0983  0.1864  1.0000  -3.8440   0.0000   0.0000   0.0000   0.2902
  12.300   1.6143   0.03388   0.02765  -0.0976  0.1811  1.0000  -3.8815   0.0000   0.0000   0.0000   0.2895
  12.400   1.6150   0.03468   0.02843  -0.0969  0.1762  1.0000  -3.9161   0.0000   0.0000   0.0000   0.2888
  12.500   1.6167   0.03540   0.02914  -0.0962  0.1709  1.0000  -3.9540   0.0000   0.0000   0.0000   0.2881
  12.600   1.6180   0.03617   0.02990  -0.0956  0.1662  1.0000  -3.9905   0.0000   0.0000   0.0000   0.2875
  12.700   1.6190   0.03698   0.03069  -0.0949  0.1615  1.0000  -4.0261   0.0000   0.0000   0.0000   0.2868
  12.800   1.6207   0.03773   0.03144  -0.0943  0.1569  1.0000  -4.0641   0.0000   0.0000   0.0000   0.2862
  13.000   1.6230   0.03934   0.03303  -0.0930  0.1480  1.0000  -4.1365   0.0000   0.0000   0.0000   0.2849
  13.100   1.6235   0.04021   0.03389  -0.0924  0.1439  1.0000  -4.1709   0.0000   0.0000   0.0000   0.2843
  13.200   1.6249   0.04101   0.03469  -0.0918  0.1395  1.0000  -4.2081   0.0000   0.0000   0.0000   0.2836
  13.300   1.6257   0.04188   0.03555  -0.0912  0.1355  1.0000  -4.2434   0.0000   0.0000   0.0000   0.2830
  13.400   1.6266   0.04275   0.03641  -0.0906  0.1313  1.0000  -4.2791   0.0000   0.0000   0.0000   0.2824
  13.500   1.6276   0.04362   0.03728  -0.0901  0.1273  1.0000  -4.3148   0.0000   0.0000   0.0000   0.2819
  13.600   1.6281   0.04454   0.03819  -0.0895  0.1234  1.0000  -4.3492   0.0000   0.0000   0.0000   0.2813
  13.700   1.6291   0.04542   0.03908  -0.0890  0.1196  1.0000  -4.3853   0.0000   0.0000   0.0000   0.2807
  13.800   1.6293   0.04639   0.04004  -0.0884  0.1161  1.0000  -4.4205   0.0000   0.0000   0.0000   0.2801
  13.900   1.6303   0.04729   0.04094  -0.0879  0.1125  1.0000  -4.4593   0.0000   0.0000   0.0000   0.2796
  14.000   1.6303   0.04829   0.04193  -0.0874  0.1092  1.0000  -4.4939   0.0000   0.0000   0.0000   0.2790
  14.100   1.6312   0.04920   0.04285  -0.0869  0.1059  1.0000  -4.5324   0.0000   0.0000   0.0000   0.2785
  14.200   1.6311   0.05023   0.04388  -0.0864  0.1028  1.0000  -4.5670   0.0000   0.0000   0.0000   0.2780
  14.300   1.6318   0.05119   0.04484  -0.0860  0.0998  1.0000  -4.6044   0.0000   0.0000   0.0000   0.2775
  14.400   1.6319   0.05222   0.04587  -0.0855  0.0969  1.0000  -4.6398   0.0000   0.0000   0.0000   0.2770
  14.500   1.6319   0.05326   0.04692  -0.0851  0.0943  1.0000  -4.6772   0.0000   0.0000   0.0000   0.2765
  14.600   1.6325   0.05426   0.04792  -0.0847  0.0915  1.0000  -4.7197   0.0000   0.0000   0.0000   0.2760
  14.700   1.6315   0.05542   0.04908  -0.0842  0.0893  1.0000  -4.7558   0.0000   0.0000   0.0000   0.2755
  14.800   1.6327   0.05637   0.05006  -0.0839  0.0866  1.0000  -4.8005   0.0000   0.0000   0.0000   0.2750
  14.900   1.6323   0.05749   0.05118  -0.0835  0.0843  1.0000  -4.8392   0.0000   0.0000   0.0000   0.2746
  15.000   1.6319   0.05863   0.05233  -0.0831  0.0823  1.0000  -4.8774   0.0000   0.0000   0.0000   0.2741
  15.100   1.6325   0.05966   0.05338  -0.0828  0.0800  1.0000  -4.9201   0.0000   0.0000   0.0000   0.2737
  15.200   1.6317   0.06084   0.05457  -0.0824  0.0780  1.0000  -4.9569   0.0000   0.0000   0.0000   0.2732
  15.300   1.6313   0.06199   0.05572  -0.0821  0.0762  1.0000  -4.9952   0.0000   0.0000   0.0000   0.2728
  15.400   1.6316   0.06307   0.05683  -0.0818  0.0742  1.0000  -5.0365   0.0000   0.0000   0.0000   0.2724
  15.500   1.6307   0.06429   0.05805  -0.0814  0.0725  1.0000  -5.0730   0.0000   0.0000   0.0000   0.2720
  15.600   1.6295   0.06556   0.05934  -0.0811  0.0709  1.0000  -5.1078   0.0000   0.0000   0.0000   0.2716
  15.700   1.6301   0.06664   0.06045  -0.0809  0.0691  1.0000  -5.1503   0.0000   0.0000   0.0000   0.2712
  15.800   1.6295   0.06787   0.06168  -0.0806  0.0675  1.0000  -5.1877   0.0000   0.0000   0.0000   0.2708
  15.900   1.6276   0.06925   0.06307  -0.0804  0.0662  1.0000  -5.2194   0.0000   0.0000   0.0000   0.2705
  16.000   1.6276   0.07040   0.06426  -0.0802  0.0647  1.0000  -5.2596   0.0000   0.0000   0.0000   0.2701
  16.100   1.6274   0.07160   0.06548  -0.0800  0.0632  1.0000  -5.2987   0.0000   0.0000   0.0000   0.2698
  16.200   1.6263   0.07292   0.06681  -0.0798  0.0619  1.0000  -5.3338   0.0000   0.0000   0.0000   0.2695
  16.300   1.6239   0.07440   0.06830  -0.0796  0.0608  1.0000  -5.3631   0.0000   0.0000   0.0000   0.2692
  16.400   1.6238   0.07560   0.06954  -0.0795  0.0595  1.0000  -5.4026   0.0000   0.0000   0.0000   0.2689
  16.500   1.6236   0.07683   0.07080  -0.0793  0.0582  1.0000  -5.4415   0.0000   0.0000   0.0000   0.2686
  16.600   1.6223   0.07820   0.07219  -0.0792  0.0570  1.0000  -5.4754   0.0000   0.0000   0.0000   0.2683
  16.700   1.6200   0.07968   0.07368  -0.0791  0.0561  1.0000  -5.5046   0.0000   0.0000   0.0000   0.2680
  16.800   1.6176   0.08120   0.07522  -0.0790  0.0551  1.0000  -5.5331   0.0000   0.0000   0.0000   0.2678
  16.900   1.6178   0.08238   0.07645  -0.0789  0.0539  1.0000  -5.5737   0.0000   0.0000   0.0000   0.2675
  17.000   1.6169   0.08373   0.07783  -0.0788  0.0529  1.0000  -5.6089   0.0000   0.0000   0.0000   0.2673
  17.100   1.6151   0.08520   0.07931  -0.0788  0.0519  1.0000  -5.6401   0.0000   0.0000   0.0000   0.2670
  17.200   1.6123   0.08680   0.08093  -0.0788  0.0512  1.0000  -5.6662   0.0000   0.0000   0.0000   0.2669
  17.300   1.6091   0.08848   0.08262  -0.0788  0.0504  1.0000  -5.6899   0.0000   0.0000   0.0000   0.2667
  17.400   1.6093   0.08971   0.08391  -0.0788  0.0494  1.0000  -5.7296   0.0000   0.0000   0.0000   0.2665
  17.500   1.6084   0.09109   0.08533  -0.0788  0.0484  1.0000  -5.7645   0.0000   0.0000   0.0000   0.2663
  17.600   1.6067   0.09258   0.08684  -0.0789  0.0475  1.0000  -5.7957   0.0000   0.0000   0.0000   0.2661
  17.700   1.6040   0.09422   0.08849  -0.0790  0.0468  1.0000  -5.8215   0.0000   0.0000   0.0000   0.2660
  17.800   1.6005   0.09598   0.09027  -0.0791  0.0462  1.0000  -5.8426   0.0000   0.0000   0.0000   0.2659
  17.900   1.5983   0.09756   0.09188  -0.0792  0.0454  1.0000  -5.8701   0.0000   0.0000   0.0000   0.2658
  18.000   1.5979   0.09890   0.09327  -0.0793  0.0445  1.0000  -5.9063   0.0000   0.0000   0.0000   0.2657
  18.100   1.5967   0.10036   0.09477  -0.0794  0.0437  1.0000  -5.9386   0.0000   0.0000   0.0000   0.2655
  18.200   1.5947   0.10191   0.09635  -0.0796  0.0430  1.0000  -5.9672   0.0000   0.0000   0.0000   0.2654
  18.300   1.5919   0.10359   0.09805  -0.0798  0.0423  1.0000  -5.9914   0.0000   0.0000   0.0000   0.2654
  18.400   1.5882   0.10541   0.09988  -0.0800  0.0418  1.0000  -6.0103   0.0000   0.0000   0.0000   0.2654
  18.500   1.5850   0.10715   0.10164  -0.0803  0.0412  1.0000  -6.0314   0.0000   0.0000   0.0000   0.2654
  18.600   1.5845   0.10855   0.10309  -0.0805  0.0404  1.0000  -6.0659   0.0000   0.0000   0.0000   0.2653
  18.700   1.5834   0.11003   0.10462  -0.0807  0.0397  1.0000  -6.0973   0.0000   0.0000   0.0000   0.2652
  18.800   1.5817   0.11160   0.10623  -0.0810  0.0390  1.0000  -6.1259   0.0000   0.0000   0.0000   0.2652
  18.900   1.5795   0.11324   0.10789  -0.0813  0.0384  1.0000  -6.1520   0.0000   0.0000   0.0000   0.2652
  19.000   1.5764   0.11502   0.10968  -0.0817  0.0379  1.0000  -6.1731   0.0000   0.0000   0.0000   0.2653
  19.100   1.5728   0.11687   0.11155  -0.0821  0.0374  1.0000  -6.1904   0.0000   0.0000   0.0000   0.2654
  19.200   1.5700   0.11862   0.11332  -0.0824  0.0369  1.0000  -6.2112   0.0000   0.0000   0.0000   0.2655
  19.300   1.5693   0.12008   0.11484  -0.0828  0.0363  1.0000  -6.2431   0.0000   0.0000   0.0000   0.2655
  19.400   1.5681   0.12162   0.11641  -0.0831  0.0357  1.0000  -6.2721   0.0000   0.0000   0.0000   0.2655
  19.500   1.5664   0.12322   0.11805  -0.0836  0.0351  1.0000  -6.2991   0.0000   0.0000   0.0000   0.2656
  19.600   1.5647   0.12483   0.11969  -0.0840  0.0346  1.0000  -6.3258   0.0000   0.0000   0.0000   0.2656
  19.700   1.5625   0.12652   0.12140  -0.0845  0.0342  1.0000  -6.3496   0.0000   0.0000   0.0000   0.2658
  19.800   1.5600   0.12825   0.12315  -0.0850  0.0338  1.0000  -6.3710   0.0000   0.0000   0.0000   0.2659
  19.900   1.5568   0.13006   0.12497  -0.0855  0.0334  1.0000  -6.3886   0.0000   0.0000   0.0000   0.2661
  20.000   1.5541   0.13180   0.12672  -0.0860  0.0330  1.0000  -6.4075   0.0000   0.0000   0.0000   0.2663


