xflr5 v6.57

 Calculated polar for: reaf

 1 1 Reynolds number fixed          Mach number fixed         

 xtrf =   1.000 (top)        1.000 (bottom)
 Mach =   0.000     Re =     0.800 e 6     Ncrit =   9.000

  alpha     CL        CD       CDp       Cm    Top Xtr Bot Xtr   Cpmin    Chinge    XCp    
 ------- -------- --------- --------- -------- ------- ------- -------- --------- ---------
 -10.000  -0.4564   0.01947   0.01439  -0.1371  0.8047  0.0223  -6.3546   0.0000   0.0000   0.0000  -0.0712
  -9.900  -0.4460   0.01923   0.01408  -0.1372  0.8035  0.0224  -6.2644   0.0000   0.0000   0.0000  -0.0787
  -9.800  -0.4379   0.01837   0.01315  -0.1374  0.8024  0.0227  -6.2062   0.0000   0.0000   0.0000  -0.0849
  -9.700  -0.4282   0.01794   0.01267  -0.1375  0.8014  0.0229  -6.1231   0.0000   0.0000   0.0000  -0.0924
  -9.600  -0.4179   0.01765   0.01236  -0.1376  0.8002  0.0231  -6.0323   0.0000   0.0000   0.0000  -0.1007
  -9.500  -0.4074   0.01740   0.01211  -0.1377  0.7989  0.0233  -5.9390   0.0000   0.0000   0.0000  -0.1097
  -9.400  -0.3968   0.01718   0.01187  -0.1378  0.7975  0.0234  -5.8450   0.0000   0.0000   0.0000  -0.1192
  -9.300  -0.3861   0.01698   0.01165  -0.1379  0.7962  0.0236  -5.7515   0.0000   0.0000   0.0000  -0.1293
  -9.200  -0.3754   0.01678   0.01142  -0.1380  0.7950  0.0238  -5.6589   0.0000   0.0000   0.0000  -0.1400
  -9.100  -0.3647   0.01657   0.01119  -0.1381  0.7939  0.0240  -5.5674   0.0000   0.0000   0.0000  -0.1514
  -9.000  -0.3539   0.01637   0.01095  -0.1382  0.7929  0.0243  -5.4771   0.0000   0.0000   0.0000  -0.1634
  -8.900  -0.3431   0.01617   0.01070  -0.1383  0.7919  0.0245  -5.3874   0.0000   0.0000   0.0000  -0.1763
  -8.800  -0.3322   0.01598   0.01047  -0.1384  0.7907  0.0247  -5.2980   0.0000   0.0000   0.0000  -0.1901
  -8.700  -0.3213   0.01579   0.01025  -0.1385  0.7894  0.0250  -5.2089   0.0000   0.0000   0.0000  -0.2049
  -8.600  -0.3104   0.01561   0.01004  -0.1386  0.7881  0.0253  -5.1203   0.0000   0.0000   0.0000  -0.2209
  -8.500  -0.2993   0.01544   0.00983  -0.1386  0.7868  0.0255  -5.0320   0.0000   0.0000   0.0000  -0.2381
  -8.400  -0.2882   0.01529   0.00963  -0.1387  0.7857  0.0258  -4.9475   0.0000   0.0000   0.0000  -0.2567
  -8.300  -0.2770   0.01517   0.00946  -0.1388  0.7845  0.0259  -4.8658   0.0000   0.0000   0.0000  -0.2770
  -8.200  -0.2670   0.01469   0.00894  -0.1389  0.7835  0.0263  -4.8009   0.0000   0.0000   0.0000  -0.2966
  -8.100  -0.2565   0.01439   0.00862  -0.1389  0.7825  0.0266  -4.7255   0.0000   0.0000   0.0000  -0.3189
  -8.000  -0.2456   0.01419   0.00841  -0.1390  0.7815  0.0268  -4.6450   0.0000   0.0000   0.0000  -0.3441
  -7.900  -0.2345   0.01402   0.00824  -0.1391  0.7802  0.0271  -4.5633   0.0000   0.0000   0.0000  -0.3719
  -7.800  -0.2234   0.01387   0.00808  -0.1392  0.7790  0.0274  -4.4819   0.0000   0.0000   0.0000  -0.4027
  -7.700  -0.2123   0.01372   0.00792  -0.1393  0.7777  0.0276  -4.4013   0.0000   0.0000   0.0000  -0.4368
  -7.600  -0.2011   0.01358   0.00775  -0.1394  0.7765  0.0279  -4.3217   0.0000   0.0000   0.0000  -0.4748
  -7.500  -0.1900   0.01343   0.00758  -0.1394  0.7754  0.0283  -4.2432   0.0000   0.0000   0.0000  -0.5172
  -7.400  -0.1788   0.01328   0.00740  -0.1395  0.7743  0.0286  -4.1656   0.0000   0.0000   0.0000  -0.5650
  -7.300  -0.1675   0.01315   0.00723  -0.1396  0.7733  0.0289  -4.0888   0.0000   0.0000   0.0000  -0.6194
  -7.200  -0.1562   0.01302   0.00706  -0.1396  0.7723  0.0292  -4.0122   0.0000   0.0000   0.0000  -0.6819
  -7.100  -0.1449   0.01290   0.00691  -0.1397  0.7712  0.0295  -3.9358   0.0000   0.0000   0.0000  -0.7544
  -7.000  -0.1335   0.01281   0.00679  -0.1398  0.7700  0.0298  -3.8588   0.0000   0.0000   0.0000  -0.8398
  -6.900  -0.1230   0.01246   0.00644  -0.1399  0.7687  0.0303  -3.7913   0.0000   0.0000   0.0000  -0.9334
  -6.800  -0.1119   0.01228   0.00627  -0.1400  0.7674  0.0307  -3.7151   0.0000   0.0000   0.0000  -1.0508
  -6.700  -0.1006   0.01217   0.00615  -0.1400  0.7662  0.0312  -3.6372   0.0000   0.0000   0.0000  -1.1967
  -6.600  -0.0892   0.01206   0.00604  -0.1401  0.7651  0.0316  -3.5600   0.0000   0.0000   0.0000  -1.3805
  -6.500  -0.0778   0.01196   0.00592  -0.1402  0.7641  0.0321  -3.4872   0.0000   0.0000   0.0000  -1.6183
  -6.400  -0.0665   0.01186   0.00579  -0.1403  0.7631  0.0326  -3.4186   0.0000   0.0000   0.0000  -1.9381
  -6.300  -0.0550   0.01177   0.00566  -0.1403  0.7621  0.0330  -3.3514   0.0000   0.0000   0.0000  -2.3917
  -6.200  -0.0436   0.01167   0.00555  -0.1404  0.7609  0.0335  -3.2848   0.0000   0.0000   0.0000  -3.0810
  -6.100  -0.0322   0.01158   0.00544  -0.1405  0.7596  0.0338  -3.2179   0.0000   0.0000   0.0000  -4.2666
  -6.000  -0.0212   0.01134   0.00520  -0.1406  0.7583  0.0344  -3.1567   0.0000   0.0000   0.0000  -6.6167
  -5.900  -0.0099   0.01119   0.00504  -0.1407  0.7571  0.0350  -3.0908   0.0000   0.0000   0.0000  -14.3816
  -5.800   0.0015   0.01108   0.00494  -0.1407  0.7560  0.0355  -3.0234   0.0000   0.0000   0.0000  99.4667
  -5.700   0.0129   0.01099   0.00484  -0.1408  0.7549  0.0361  -2.9565   0.0000   0.0000   0.0000  11.5048
  -5.600   0.0244   0.01091   0.00473  -0.1409  0.7538  0.0367  -2.8905   0.0000   0.0000   0.0000   6.2091
  -5.500   0.0359   0.01083   0.00463  -0.1410  0.7528  0.0373  -2.8253   0.0000   0.0000   0.0000   4.2982
  -5.400   0.0474   0.01077   0.00454  -0.1410  0.7518  0.0379  -2.7607   0.0000   0.0000   0.0000   3.3133
  -5.300   0.0588   0.01066   0.00442  -0.1411  0.7505  0.0386  -2.6977   0.0000   0.0000   0.0000   2.7194
  -5.200   0.0701   0.01049   0.00427  -0.1412  0.7492  0.0394  -2.6352   0.0000   0.0000   0.0000   2.3232
  -5.100   0.0815   0.01040   0.00419  -0.1413  0.7479  0.0402  -2.5703   0.0000   0.0000   0.0000   2.0319
  -5.000   0.0930   0.01033   0.00411  -0.1414  0.7466  0.0410  -2.5059   0.0000   0.0000   0.0000   1.8114
  -4.900   0.1045   0.01026   0.00403  -0.1415  0.7454  0.0419  -2.4426   0.0000   0.0000   0.0000   1.6390
  -4.800   0.1161   0.01021   0.00395  -0.1415  0.7443  0.0427  -2.3850   0.0000   0.0000   0.0000   1.5004
  -4.700   0.1276   0.01009   0.00382  -0.1416  0.7433  0.0436  -2.3300   0.0000   0.0000   0.0000   1.3883
  -4.600   0.1390   0.00999   0.00371  -0.1417  0.7423  0.0446  -2.2734   0.0000   0.0000   0.0000   1.2944
  -4.500   0.1505   0.00992   0.00364  -0.1418  0.7410  0.0456  -2.2165   0.0000   0.0000   0.0000   1.2147
  -4.400   0.1620   0.00985   0.00357  -0.1419  0.7397  0.0466  -2.1604   0.0000   0.0000   0.0000   1.1461
  -4.300   0.1736   0.00979   0.00351  -0.1419  0.7383  0.0477  -2.1049   0.0000   0.0000   0.0000   1.0864
  -4.200   0.1850   0.00969   0.00340  -0.1420  0.7370  0.0488  -2.0509   0.0000   0.0000   0.0000   1.0345
  -4.100   0.1965   0.00960   0.00332  -0.1421  0.7358  0.0501  -1.9956   0.0000   0.0000   0.0000   0.9887
  -4.000   0.2081   0.00954   0.00326  -0.1422  0.7346  0.0515  -1.9403   0.0000   0.0000   0.0000   0.9476
  -3.900   0.2197   0.00950   0.00319  -0.1423  0.7335  0.0530  -1.8858   0.0000   0.0000   0.0000   0.9107
  -3.800   0.2312   0.00942   0.00310  -0.1424  0.7325  0.0547  -1.8325   0.0000   0.0000   0.0000   0.8777
  -3.700   0.2428   0.00935   0.00305  -0.1425  0.7313  0.0564  -1.7786   0.0000   0.0000   0.0000   0.8479
  -3.600   0.2543   0.00929   0.00299  -0.1425  0.7299  0.0582  -1.7255   0.0000   0.0000   0.0000   0.8208
  -3.500   0.2658   0.00921   0.00292  -0.1426  0.7284  0.0603  -1.6735   0.0000   0.0000   0.0000   0.7961
  -3.400   0.2773   0.00914   0.00287  -0.1427  0.7271  0.0625  -1.6210   0.0000   0.0000   0.0000   0.7734
  -3.200   0.3004   0.00902   0.00275  -0.1429  0.7245  0.0680  -1.5177   0.0000   0.0000   0.0000   0.7331
  -3.000   0.3236   0.00891   0.00263  -0.1431  0.7222  0.0751  -1.4228   0.0000   0.0000   0.0000   0.6985
  -2.900   0.3351   0.00885   0.00259  -0.1431  0.7209  0.0792  -1.3765   0.0000   0.0000   0.0000   0.6830
  -2.800   0.3466   0.00878   0.00255  -0.1432  0.7194  0.0841  -1.3305   0.0000   0.0000   0.0000   0.6686
  -2.700   0.3581   0.00871   0.00251  -0.1433  0.7179  0.0900  -1.2847   0.0000   0.0000   0.0000   0.6552
  -2.600   0.3697   0.00864   0.00246  -0.1434  0.7165  0.0966  -1.2393   0.0000   0.0000   0.0000   0.6426
  -2.500   0.3812   0.00858   0.00242  -0.1435  0.7151  0.1043  -1.1941   0.0000   0.0000   0.0000   0.6307
  -2.400   0.3927   0.00852   0.00238  -0.1436  0.7138  0.1127  -1.1492   0.0000   0.0000   0.0000   0.6195
  -2.300   0.4043   0.00847   0.00235  -0.1437  0.7127  0.1217  -1.1046   0.0000   0.0000   0.0000   0.6090
  -2.200   0.4159   0.00842   0.00232  -0.1438  0.7115  0.1313  -1.0604   0.0000   0.0000   0.0000   0.5990
  -2.100   0.4273   0.00835   0.00230  -0.1439  0.7099  0.1417  -1.0168   0.0000   0.0000   0.0000   0.5896
  -2.000   0.4388   0.00829   0.00228  -0.1440  0.7084  0.1527  -0.9735   0.0000   0.0000   0.0000   0.5807
  -1.900   0.4503   0.00823   0.00226  -0.1441  0.7068  0.1643  -0.9337   0.0000   0.0000   0.0000   0.5723
  -1.800   0.4618   0.00818   0.00223  -0.1442  0.7054  0.1759  -0.8942   0.0000   0.0000   0.0000   0.5642
  -1.700   0.4733   0.00812   0.00221  -0.1443  0.7040  0.1876  -0.8550   0.0000   0.0000   0.0000   0.5566
  -1.600   0.4849   0.00808   0.00218  -0.1444  0.7027  0.1997  -0.8265   0.0000   0.0000   0.0000   0.5493
  -1.500   0.4964   0.00804   0.00217  -0.1445  0.7014  0.2128  -0.8341   0.0000   0.0000   0.0000   0.5423
  -1.400   0.5079   0.00798   0.00216  -0.1446  0.6998  0.2268  -0.8416   0.0000   0.0000   0.0000   0.5357
  -1.300   0.5193   0.00792   0.00215  -0.1447  0.6981  0.2417  -0.8491   0.0000   0.0000   0.0000   0.5294
  -1.200   0.5308   0.00787   0.00214  -0.1448  0.6965  0.2572  -0.8567   0.0000   0.0000   0.0000   0.5233
  -1.100   0.5423   0.00781   0.00213  -0.1449  0.6949  0.2730  -0.8643   0.0000   0.0000   0.0000   0.5175
  -1.000   0.5538   0.00776   0.00211  -0.1450  0.6935  0.2904  -0.8719   0.0000   0.0000   0.0000   0.5120
  -0.900   0.5653   0.00771   0.00210  -0.1451  0.6921  0.3094  -0.8796   0.0000   0.0000   0.0000   0.5066
  -0.800   0.5768   0.00766   0.00210  -0.1452  0.6908  0.3302  -0.8877   0.0000   0.0000   0.0000   0.5015
  -0.700   0.5881   0.00759   0.00211  -0.1453  0.6890  0.3514  -0.8956   0.0000   0.0000   0.0000   0.4966
  -0.600   0.5996   0.00753   0.00211  -0.1454  0.6873  0.3735  -0.9036   0.0000   0.0000   0.0000   0.4919
  -0.500   0.6110   0.00747   0.00211  -0.1455  0.6856  0.3972  -0.9116   0.0000   0.0000   0.0000   0.4873
  -0.400   0.6224   0.00741   0.00211  -0.1456  0.6839  0.4220  -0.9196   0.0000   0.0000   0.0000   0.4829
  -0.300   0.6338   0.00735   0.00211  -0.1456  0.6824  0.4471  -0.9278   0.0000   0.0000   0.0000   0.4787
  -0.200   0.6452   0.00730   0.00212  -0.1457  0.6810  0.4736  -0.9361   0.0000   0.0000   0.0000   0.4746
  -0.100   0.6565   0.00724   0.00213  -0.1458  0.6793  0.5008  -0.9443   0.0000   0.0000   0.0000   0.4706
   0.000   0.6678   0.00718   0.00215  -0.1459  0.6774  0.5281  -0.9527   0.0000   0.0000   0.0000   0.4668
   0.100   0.6792   0.00713   0.00217  -0.1459  0.6756  0.5543  -0.9613   0.0000   0.0000   0.0000   0.4631
   0.200   0.6904   0.00708   0.00218  -0.1460  0.6738  0.5795  -0.9702   0.0000   0.0000   0.0000   0.4595
   0.300   0.7017   0.00704   0.00219  -0.1460  0.6721  0.6043  -0.9792   0.0000   0.0000   0.0000   0.4560
   0.400   0.7129   0.00701   0.00221  -0.1460  0.6705  0.6289  -0.9881   0.0000   0.0000   0.0000   0.4526
   0.500   0.7241   0.00697   0.00223  -0.1460  0.6687  0.6540  -0.9969   0.0000   0.0000   0.0000   0.4493
   0.600   0.7352   0.00693   0.00226  -0.1460  0.6666  0.6765  -1.0058   0.0000   0.0000   0.0000   0.4461
   0.700   0.7464   0.00690   0.00228  -0.1460  0.6647  0.6969  -1.0147   0.0000   0.0000   0.0000   0.4429
   0.800   0.7575   0.00688   0.00230  -0.1460  0.6628  0.7157  -1.0239   0.0000   0.0000   0.0000   0.4399
   0.900   0.7686   0.00687   0.00232  -0.1460  0.6611  0.7327  -1.0332   0.0000   0.0000   0.0000   0.4369
   1.000   0.7796   0.00686   0.00233  -0.1459  0.6594  0.7492  -1.0426   0.0000   0.0000   0.0000   0.4340
   1.100   0.7906   0.00684   0.00236  -0.1458  0.6573  0.7657  -1.0519   0.0000   0.0000   0.0000   0.4312
   1.200   0.8016   0.00682   0.00239  -0.1458  0.6551  0.7813  -1.0613   0.0000   0.0000   0.0000   0.4285
   1.300   0.8124   0.00680   0.00240  -0.1457  0.6530  0.7966  -1.0711   0.0000   0.0000   0.0000   0.4258
   1.500   0.8337   0.00679   0.00244  -0.1454  0.6492  0.8276  -1.0911   0.0000   0.0000   0.0000   0.4206
   1.600   0.8442   0.00677   0.00246  -0.1452  0.6470  0.8438  -1.1010   0.0000   0.0000   0.0000   0.4181
   1.700   0.8545   0.00674   0.00249  -0.1450  0.6446  0.8604  -1.1107   0.0000   0.0000   0.0000   0.4156
   1.800   0.8642   0.00671   0.00250  -0.1446  0.6424  0.8791  -1.1202   0.0000   0.0000   0.0000   0.4131
   1.900   0.8735   0.00669   0.00251  -0.1441  0.6403  0.9014  -1.1299   0.0000   0.0000   0.0000   0.4107
   2.000   0.8824   0.00666   0.00251  -0.1435  0.6384  0.9300  -1.1394   0.0000   0.0000   0.0000   0.4082
   2.100   0.8977   0.00659   0.00250  -0.1444  0.6359  0.9805  -1.1530   0.0000   0.0000   0.0000   0.4062
   2.200   0.9101   0.00661   0.00251  -0.1446  0.6334  1.0000  -1.1647   0.0000   0.0000   0.0000   0.4042
   2.300   0.9214   0.00664   0.00252  -0.1447  0.6310  1.0000  -1.1758   0.0000   0.0000   0.0000   0.4022
   2.400   0.9327   0.00668   0.00254  -0.1448  0.6288  1.0000  -1.1875   0.0000   0.0000   0.0000   0.4002
   2.500   0.9440   0.00672   0.00256  -0.1448  0.6264  1.0000  -1.1993   0.0000   0.0000   0.0000   0.3983
   2.600   0.9554   0.00674   0.00259  -0.1449  0.6237  1.0000  -1.2114   0.0000   0.0000   0.0000   0.3964
   2.700   0.9667   0.00678   0.00261  -0.1450  0.6210  1.0000  -1.2235   0.0000   0.0000   0.0000   0.3945
   2.800   0.9778   0.00682   0.00263  -0.1450  0.6186  1.0000  -1.2355   0.0000   0.0000   0.0000   0.3927
   2.900   0.9890   0.00686   0.00265  -0.1450  0.6161  1.0000  -1.2475   0.0000   0.0000   0.0000   0.3910
   3.000   1.0003   0.00689   0.00268  -0.1451  0.6132  1.0000  -1.2600   0.0000   0.0000   0.0000   0.3892
   3.100   1.0115   0.00693   0.00271  -0.1451  0.6104  1.0000  -1.2727   0.0000   0.0000   0.0000   0.3875
   3.200   1.0225   0.00697   0.00273  -0.1451  0.6077  1.0000  -1.2854   0.0000   0.0000   0.0000   0.3859
   3.300   1.0336   0.00702   0.00277  -0.1451  0.6050  1.0000  -1.2982   0.0000   0.0000   0.0000   0.3842
   3.400   1.0448   0.00705   0.00280  -0.1452  0.6019  1.0000  -1.3113   0.0000   0.0000   0.0000   0.3826
   3.500   1.0558   0.00710   0.00283  -0.1452  0.5988  1.0000  -1.3245   0.0000   0.0000   0.0000   0.3810
   3.600   1.0666   0.00715   0.00286  -0.1452  0.5961  1.0000  -1.3379   0.0000   0.0000   0.0000   0.3795
   3.700   1.0778   0.00719   0.00290  -0.1452  0.5928  1.0000  -1.3517   0.0000   0.0000   0.0000   0.3780
   3.800   1.0888   0.00724   0.00294  -0.1452  0.5895  1.0000  -1.3657   0.0000   0.0000   0.0000   0.3765
   3.900   1.0995   0.00729   0.00297  -0.1452  0.5863  1.0000  -1.3804   0.0000   0.0000   0.0000   0.3750
   4.000   1.1104   0.00735   0.00301  -0.1451  0.5830  1.0000  -1.3953   0.0000   0.0000   0.0000   0.3736
   4.100   1.1214   0.00739   0.00306  -0.1452  0.5793  1.0000  -1.4107   0.0000   0.0000   0.0000   0.3722
   4.200   1.1320   0.00745   0.00310  -0.1451  0.5757  1.0000  -1.4259   0.0000   0.0000   0.0000   0.3708
   4.300   1.1427   0.00751   0.00315  -0.1451  0.5721  1.0000  -1.4415   0.0000   0.0000   0.0000   0.3694
   4.400   1.1535   0.00756   0.00319  -0.1450  0.5681  1.0000  -1.4574   0.0000   0.0000   0.0000   0.3680
   4.500   1.1640   0.00763   0.00324  -0.1449  0.5643  1.0000  -1.4731   0.0000   0.0000   0.0000   0.3667
   4.600   1.1747   0.00769   0.00329  -0.1449  0.5605  1.0000  -1.4894   0.0000   0.0000   0.0000   0.3654
   4.700   1.1853   0.00775   0.00334  -0.1448  0.5563  1.0000  -1.5058   0.0000   0.0000   0.0000   0.3641
   4.900   1.2062   0.00789   0.00346  -0.1447  0.5483  1.0000  -1.5386   0.0000   0.0000   0.0000   0.3616
   5.000   1.2166   0.00797   0.00352  -0.1446  0.5440  1.0000  -1.5554   0.0000   0.0000   0.0000   0.3603
   5.100   1.2268   0.00805   0.00358  -0.1445  0.5399  1.0000  -1.5727   0.0000   0.0000   0.0000   0.3591
   5.200   1.2373   0.00812   0.00364  -0.1444  0.5353  1.0000  -1.5915   0.0000   0.0000   0.0000   0.3579
   5.300   1.2472   0.00821   0.00371  -0.1442  0.5310  1.0000  -1.6103   0.0000   0.0000   0.0000   0.3567
   5.400   1.2576   0.00828   0.00378  -0.1442  0.5262  1.0000  -1.6299   0.0000   0.0000   0.0000   0.3555
   5.500   1.2676   0.00838   0.00385  -0.1440  0.5213  1.0000  -1.6496   0.0000   0.0000   0.0000   0.3544
   5.600   1.2776   0.00846   0.00392  -0.1438  0.5164  1.0000  -1.6695   0.0000   0.0000   0.0000   0.3532
   5.700   1.2874   0.00856   0.00401  -0.1437  0.5109  1.0000  -1.6892   0.0000   0.0000   0.0000   0.3521
   5.800   1.2972   0.00866   0.00409  -0.1435  0.5056  1.0000  -1.7096   0.0000   0.0000   0.0000   0.3509
   5.900   1.3068   0.00877   0.00417  -0.1433  0.4999  1.0000  -1.7300   0.0000   0.0000   0.0000   0.3498
   6.000   1.3164   0.00888   0.00426  -0.1430  0.4944  1.0000  -1.7506   0.0000   0.0000   0.0000   0.3487
   6.100   1.3258   0.00899   0.00435  -0.1428  0.4887  1.0000  -1.7716   0.0000   0.0000   0.0000   0.3476
   6.200   1.3354   0.00910   0.00444  -0.1426  0.4832  1.0000  -1.7937   0.0000   0.0000   0.0000   0.3465
   6.300   1.3446   0.00922   0.00454  -0.1423  0.4775  1.0000  -1.8192   0.0000   0.0000   0.0000   0.3454
   6.400   1.3540   0.00934   0.00464  -0.1421  0.4719  1.0000  -1.8450   0.0000   0.0000   0.0000   0.3444
   6.500   1.3629   0.00947   0.00475  -0.1417  0.4661  1.0000  -1.8703   0.0000   0.0000   0.0000   0.3433
   6.600   1.3722   0.00959   0.00485  -0.1415  0.4603  1.0000  -1.8973   0.0000   0.0000   0.0000   0.3423
   6.800   1.3900   0.00986   0.00508  -0.1408  0.4483  1.0000  -1.9553   0.0000   0.0000   0.0000   0.3402
   6.900   1.3983   0.01002   0.00521  -0.1404  0.4422  1.0000  -1.9849   0.0000   0.0000   0.0000   0.3391
   7.000   1.4068   0.01016   0.00533  -0.1400  0.4352  1.0000  -2.0151   0.0000   0.0000   0.0000   0.3381
   7.100   1.4150   0.01033   0.00547  -0.1396  0.4283  1.0000  -2.0448   0.0000   0.0000   0.0000   0.3370
   7.200   1.4225   0.01052   0.00562  -0.1391  0.4211  1.0000  -2.0736   0.0000   0.0000   0.0000   0.3360
   7.300   1.4305   0.01068   0.00576  -0.1386  0.4136  1.0000  -2.1040   0.0000   0.0000   0.0000   0.3350
   7.400   1.4382   0.01086   0.00590  -0.1381  0.4067  1.0000  -2.1356   0.0000   0.0000   0.0000   0.3339
   7.500   1.4453   0.01105   0.00607  -0.1375  0.3999  1.0000  -2.1669   0.0000   0.0000   0.0000   0.3329
   7.600   1.4529   0.01121   0.00621  -0.1370  0.3932  1.0000  -2.1993   0.0000   0.0000   0.0000   0.3319
   7.700   1.4595   0.01140   0.00637  -0.1362  0.3871  1.0000  -2.2299   0.0000   0.0000   0.0000   0.3308
   7.800   1.4660   0.01159   0.00653  -0.1355  0.3805  1.0000  -2.2606   0.0000   0.0000   0.0000   0.3297
   7.900   1.4727   0.01178   0.00670  -0.1348  0.3739  1.0000  -2.2922   0.0000   0.0000   0.0000   0.3287
   8.000   1.4786   0.01201   0.00690  -0.1340  0.3673  1.0000  -2.3236   0.0000   0.0000   0.0000   0.3276
   8.100   1.4851   0.01222   0.00708  -0.1334  0.3605  1.0000  -2.3562   0.0000   0.0000   0.0000   0.3266
   8.200   1.4912   0.01244   0.00728  -0.1326  0.3541  1.0000  -2.3883   0.0000   0.0000   0.0000   0.3256
   8.400   1.5033   0.01291   0.00771  -0.1312  0.3413  1.0000  -2.4523   0.0000   0.0000   0.0000   0.3236
   8.500   1.5089   0.01317   0.00794  -0.1304  0.3353  1.0000  -2.4838   0.0000   0.0000   0.0000   0.3226
   8.600   1.5147   0.01343   0.00817  -0.1297  0.3288  1.0000  -2.5157   0.0000   0.0000   0.0000   0.3216
   8.700   1.5205   0.01369   0.00842  -0.1290  0.3227  1.0000  -2.5551   0.0000   0.0000   0.0000   0.3207
   8.900   1.5315   0.01426   0.00894  -0.1276  0.3102  1.0000  -2.6384   0.0000   0.0000   0.0000   0.3188
   9.000   1.5366   0.01458   0.00923  -0.1268  0.3041  1.0000  -2.6794   0.0000   0.0000   0.0000   0.3178
   9.100   1.5416   0.01490   0.00953  -0.1260  0.2977  1.0000  -2.7204   0.0000   0.0000   0.0000   0.3169
   9.200   1.5471   0.01521   0.00982  -0.1254  0.2915  1.0000  -2.7626   0.0000   0.0000   0.0000   0.3160
   9.300   1.5517   0.01556   0.01015  -0.1246  0.2855  1.0000  -2.8031   0.0000   0.0000   0.0000   0.3151
   9.400   1.5570   0.01589   0.01045  -0.1239  0.2793  1.0000  -2.8453   0.0000   0.0000   0.0000   0.3142
   9.500   1.5619   0.01624   0.01078  -0.1232  0.2735  1.0000  -2.8868   0.0000   0.0000   0.0000   0.3133
   9.600   1.5664   0.01663   0.01114  -0.1224  0.2675  1.0000  -2.9272   0.0000   0.0000   0.0000   0.3124
   9.700   1.5716   0.01697   0.01147  -0.1218  0.2617  1.0000  -2.9699   0.0000   0.0000   0.0000   0.3116
   9.800   1.5760   0.01737   0.01185  -0.1210  0.2560  1.0000  -3.0104   0.0000   0.0000   0.0000   0.3107
   9.900   1.5805   0.01777   0.01222  -0.1203  0.2498  1.0000  -3.0516   0.0000   0.0000   0.0000   0.3098
  10.000   1.5849   0.01817   0.01260  -0.1196  0.2438  1.0000  -3.0927   0.0000   0.0000   0.0000   0.3090
  10.100   1.5887   0.01863   0.01303  -0.1188  0.2378  1.0000  -3.1320   0.0000   0.0000   0.0000   0.3081
  10.200   1.5930   0.01905   0.01343  -0.1181  0.2315  1.0000  -3.1731   0.0000   0.0000   0.0000   0.3073
  10.300   1.5970   0.01949   0.01385  -0.1174  0.2255  1.0000  -3.2135   0.0000   0.0000   0.0000   0.3065
  10.400   1.6003   0.01998   0.01431  -0.1166  0.2196  1.0000  -3.2521   0.0000   0.0000   0.0000   0.3056
  10.500   1.6041   0.02044   0.01475  -0.1158  0.2133  1.0000  -3.2930   0.0000   0.0000   0.0000   0.3048
  10.600   1.6077   0.02093   0.01521  -0.1151  0.2073  1.0000  -3.3351   0.0000   0.0000   0.0000   0.3040
  10.700   1.6107   0.02146   0.01570  -0.1143  0.2014  1.0000  -3.3756   0.0000   0.0000   0.0000   0.3032
  10.800   1.6141   0.02196   0.01619  -0.1135  0.1952  1.0000  -3.4174   0.0000   0.0000   0.0000   0.3024
  10.900   1.6174   0.02248   0.01668  -0.1128  0.1894  1.0000  -3.4592   0.0000   0.0000   0.0000   0.3016
  11.000   1.6201   0.02303   0.01720  -0.1120  0.1838  1.0000  -3.4994   0.0000   0.0000   0.0000   0.3008
  11.100   1.6231   0.02356   0.01772  -0.1112  0.1781  1.0000  -3.5407   0.0000   0.0000   0.0000   0.3000
  11.200   1.6263   0.02409   0.01823  -0.1105  0.1729  1.0000  -3.5826   0.0000   0.0000   0.0000   0.2992
  11.300   1.6289   0.02468   0.01878  -0.1097  0.1679  1.0000  -3.6226   0.0000   0.0000   0.0000   0.2984
  11.400   1.6321   0.02521   0.01931  -0.1090  0.1627  1.0000  -3.6648   0.0000   0.0000   0.0000   0.2977
  11.500   1.6349   0.02578   0.01986  -0.1083  0.1580  1.0000  -3.7061   0.0000   0.0000   0.0000   0.2969
  11.600   1.6374   0.02637   0.02043  -0.1076  0.1533  1.0000  -3.7465   0.0000   0.0000   0.0000   0.2962
  11.700   1.6405   0.02692   0.02097  -0.1069  0.1487  1.0000  -3.7886   0.0000   0.0000   0.0000   0.2954
  11.800   1.6426   0.02755   0.02157  -0.1061  0.1445  1.0000  -3.8281   0.0000   0.0000   0.0000   0.2947
  11.900   1.6458   0.02810   0.02212  -0.1054  0.1400  1.0000  -3.8708   0.0000   0.0000   0.0000   0.2939
  12.000   1.6481   0.02872   0.02272  -0.1047  0.1361  1.0000  -3.9111   0.0000   0.0000   0.0000   0.2932
  12.100   1.6508   0.02932   0.02331  -0.1040  0.1318  1.0000  -3.9529   0.0000   0.0000   0.0000   0.2925
  12.200   1.6532   0.02994   0.02392  -0.1033  0.1280  1.0000  -3.9935   0.0000   0.0000   0.0000   0.2918
  12.300   1.6556   0.03057   0.02454  -0.1026  0.1240  1.0000  -4.0344   0.0000   0.0000   0.0000   0.2911
  12.400   1.6579   0.03121   0.02517  -0.1019  0.1204  1.0000  -4.0751   0.0000   0.0000   0.0000   0.2904
  12.500   1.6600   0.03186   0.02581  -0.1012  0.1165  1.0000  -4.1151   0.0000   0.0000   0.0000   0.2897
  12.600   1.6623   0.03251   0.02646  -0.1006  0.1131  1.0000  -4.1559   0.0000   0.0000   0.0000   0.2890
  12.700   1.6641   0.03320   0.02714  -0.0999  0.1095  1.0000  -4.1954   0.0000   0.0000   0.0000   0.2883
  12.800   1.6665   0.03386   0.02779  -0.0993  0.1062  1.0000  -4.2367   0.0000   0.0000   0.0000   0.2876
  12.900   1.6682   0.03458   0.02850  -0.0986  0.1029  1.0000  -4.2760   0.0000   0.0000   0.0000   0.2869
  13.000   1.6705   0.03526   0.02918  -0.0980  0.0998  1.0000  -4.3173   0.0000   0.0000   0.0000   0.2863
  13.100   1.6723   0.03599   0.02990  -0.0973  0.0966  1.0000  -4.3569   0.0000   0.0000   0.0000   0.2856
  13.200   1.6743   0.03671   0.03062  -0.0968  0.0938  1.0000  -4.3975   0.0000   0.0000   0.0000   0.2850
  13.300   1.6763   0.03744   0.03134  -0.0962  0.0907  1.0000  -4.4379   0.0000   0.0000   0.0000   0.2844
  13.400   1.6779   0.03820   0.03210  -0.0956  0.0880  1.0000  -4.4772   0.0000   0.0000   0.0000   0.2837
  13.500   1.6799   0.03893   0.03283  -0.0950  0.0852  1.0000  -4.5181   0.0000   0.0000   0.0000   0.2831
  13.600   1.6811   0.03974   0.03364  -0.0944  0.0826  1.0000  -4.5585   0.0000   0.0000   0.0000   0.2825
  13.700   1.6833   0.04048   0.03438  -0.0938  0.0800  1.0000  -4.6028   0.0000   0.0000   0.0000   0.2819
  13.800   1.6844   0.04131   0.03520  -0.0933  0.0775  1.0000  -4.6433   0.0000   0.0000   0.0000   0.2813
  13.900   1.6864   0.04207   0.03597  -0.0927  0.0752  1.0000  -4.6876   0.0000   0.0000   0.0000   0.2807
  14.000   1.6878   0.04289   0.03679  -0.0922  0.0728  1.0000  -4.7349   0.0000   0.0000   0.0000   0.2801
  14.100   1.6892   0.04373   0.03763  -0.0917  0.0707  1.0000  -4.7820   0.0000   0.0000   0.0000   0.2795
  14.200   1.6911   0.04452   0.03843  -0.0912  0.0686  1.0000  -4.8317   0.0000   0.0000   0.0000   0.2790
  14.300   1.6921   0.04540   0.03931  -0.0907  0.0667  1.0000  -4.8779   0.0000   0.0000   0.0000   0.2784
  14.400   1.6937   0.04624   0.04015  -0.0902  0.0649  1.0000  -4.9265   0.0000   0.0000   0.0000   0.2779
  14.500   1.6955   0.04706   0.04099  -0.0898  0.0631  1.0000  -4.9759   0.0000   0.0000   0.0000   0.2773
  14.600   1.6965   0.04796   0.04189  -0.0893  0.0615  1.0000  -5.0222   0.0000   0.0000   0.0000   0.2768
  14.700   1.6976   0.04885   0.04280  -0.0888  0.0600  1.0000  -5.0690   0.0000   0.0000   0.0000   0.2763
  14.800   1.6994   0.04968   0.04364  -0.0884  0.0585  1.0000  -5.1191   0.0000   0.0000   0.0000   0.2757
  14.900   1.7006   0.05058   0.04455  -0.0880  0.0570  1.0000  -5.1665   0.0000   0.0000   0.0000   0.2752
  15.000   1.7009   0.05158   0.04555  -0.0875  0.0557  1.0000  -5.2101   0.0000   0.0000   0.0000   0.2747
  15.100   1.7026   0.05244   0.04644  -0.0871  0.0545  1.0000  -5.2601   0.0000   0.0000   0.0000   0.2742
  15.200   1.7041   0.05332   0.04733  -0.0868  0.0532  1.0000  -5.3095   0.0000   0.0000   0.0000   0.2737
  15.300   1.7048   0.05431   0.04833  -0.0864  0.0519  1.0000  -5.3552   0.0000   0.0000   0.0000   0.2732
  15.400   1.7049   0.05535   0.04938  -0.0860  0.0508  1.0000  -5.3984   0.0000   0.0000   0.0000   0.2727
  15.500   1.7064   0.05626   0.05031  -0.0856  0.0497  1.0000  -5.4480   0.0000   0.0000   0.0000   0.2723
  15.600   1.7078   0.05720   0.05127  -0.0853  0.0486  1.0000  -5.4969   0.0000   0.0000   0.0000   0.2718
  15.700   1.7086   0.05819   0.05228  -0.0850  0.0475  1.0000  -5.5434   0.0000   0.0000   0.0000   0.2714
  15.800   1.7085   0.05928   0.05338  -0.0846  0.0466  1.0000  -5.5862   0.0000   0.0000   0.0000   0.2709
  15.900   1.7086   0.06037   0.05449  -0.0843  0.0456  1.0000  -5.6295   0.0000   0.0000   0.0000   0.2705
  16.000   1.7103   0.06128   0.05542  -0.0840  0.0447  1.0000  -5.6803   0.0000   0.0000   0.0000   0.2700
  16.100   1.7110   0.06230   0.05647  -0.0837  0.0437  1.0000  -5.7267   0.0000   0.0000   0.0000   0.2696
  16.200   1.7110   0.06339   0.05757  -0.0834  0.0427  1.0000  -5.7704   0.0000   0.0000   0.0000   0.2692
  16.300   1.7104   0.06457   0.05876  -0.0831  0.0419  1.0000  -5.8109   0.0000   0.0000   0.0000   0.2688
  16.400   1.7104   0.06569   0.05991  -0.0828  0.0410  1.0000  -5.8540   0.0000   0.0000   0.0000   0.2684
  16.500   1.7116   0.06668   0.06093  -0.0826  0.0402  1.0000  -5.9029   0.0000   0.0000   0.0000   0.2680
  16.600   1.7119   0.06779   0.06205  -0.0824  0.0393  1.0000  -5.9477   0.0000   0.0000   0.0000   0.2676
  16.700   1.7115   0.06898   0.06326  -0.0821  0.0384  1.0000  -5.9894   0.0000   0.0000   0.0000   0.2672
  16.800   1.7106   0.07024   0.06453  -0.0819  0.0377  1.0000  -6.0283   0.0000   0.0000   0.0000   0.2669
  16.900   1.7096   0.07151   0.06582  -0.0817  0.0369  1.0000  -6.0670   0.0000   0.0000   0.0000   0.2665
  17.000   1.7106   0.07256   0.06691  -0.0815  0.0362  1.0000  -6.1151   0.0000   0.0000   0.0000   0.2662
  17.100   1.7106   0.07373   0.06810  -0.0814  0.0354  1.0000  -6.1587   0.0000   0.0000   0.0000   0.2658
  17.200   1.7100   0.07498   0.06938  -0.0812  0.0347  1.0000  -6.1992   0.0000   0.0000   0.0000   0.2655
  17.300   1.7088   0.07630   0.07071  -0.0811  0.0340  1.0000  -6.2371   0.0000   0.0000   0.0000   0.2652
  17.400   1.7067   0.07775   0.07218  -0.0809  0.0334  1.0000  -6.2699   0.0000   0.0000   0.0000   0.2649
  17.500   1.7063   0.07899   0.07345  -0.0808  0.0328  1.0000  -6.3108   0.0000   0.0000   0.0000   0.2646
  17.600   1.7063   0.08018   0.07467  -0.0807  0.0321  1.0000  -6.3540   0.0000   0.0000   0.0000   0.2643
  17.700   1.7057   0.08144   0.07596  -0.0806  0.0314  1.0000  -6.3945   0.0000   0.0000   0.0000   0.2640
  17.800   1.7045   0.08278   0.07733  -0.0805  0.0308  1.0000  -6.4321   0.0000   0.0000   0.0000   0.2637
  17.900   1.7026   0.08423   0.07880  -0.0805  0.0302  1.0000  -6.4659   0.0000   0.0000   0.0000   0.2635
  18.000   1.7002   0.08575   0.08034  -0.0804  0.0297  1.0000  -6.4966   0.0000   0.0000   0.0000   0.2633
  18.100   1.6978   0.08730   0.08191  -0.0804  0.0292  1.0000  -6.5270   0.0000   0.0000   0.0000   0.2631
  18.200   1.6979   0.08850   0.08315  -0.0804  0.0286  1.0000  -6.5711   0.0000   0.0000   0.0000   0.2628
  18.300   1.6971   0.08985   0.08453  -0.0804  0.0281  1.0000  -6.6097   0.0000   0.0000   0.0000   0.2626
  18.400   1.6957   0.09126   0.08597  -0.0804  0.0276  1.0000  -6.6458   0.0000   0.0000   0.0000   0.2624
  18.500   1.6940   0.09274   0.08748  -0.0805  0.0271  1.0000  -6.6797   0.0000   0.0000   0.0000   0.2622
  18.600   1.6916   0.09431   0.08908  -0.0805  0.0266  1.0000  -6.7101   0.0000   0.0000   0.0000   0.2621
  18.700   1.6887   0.09595   0.09074  -0.0806  0.0262  1.0000  -6.7376   0.0000   0.0000   0.0000   0.2619
  18.800   1.6848   0.09774   0.09255  -0.0808  0.0258  1.0000  -6.7589   0.0000   0.0000   0.0000   0.2619
  18.900   1.6835   0.09919   0.09404  -0.0809  0.0255  1.0000  -6.7940   0.0000   0.0000   0.0000   0.2617
  19.000   1.6825   0.10061   0.09549  -0.0810  0.0251  1.0000  -6.8307   0.0000   0.0000   0.0000   0.2616
  19.100   1.6812   0.10204   0.09696  -0.0812  0.0247  1.0000  -6.8661   0.0000   0.0000   0.0000   0.2614
  19.200   1.6792   0.10358   0.09854  -0.0813  0.0243  1.0000  -6.8972   0.0000   0.0000   0.0000   0.2613
  19.300   1.6770   0.10515   0.10014  -0.0815  0.0240  1.0000  -6.9275   0.0000   0.0000   0.0000   0.2612
  19.400   1.6744   0.10679   0.10180  -0.0818  0.0237  1.0000  -6.9552   0.0000   0.0000   0.0000   0.2612
  19.500   1.6715   0.10848   0.10352  -0.0820  0.0234  1.0000  -6.9812   0.0000   0.0000   0.0000   0.2612
  19.600   1.6682   0.11024   0.10531  -0.0823  0.0231  1.0000  -7.0043   0.0000   0.0000   0.0000   0.2612
  19.700   1.6644   0.11208   0.10718  -0.0826  0.0228  1.0000  -7.0240   0.0000   0.0000   0.0000   0.2612
  19.800   1.6598   0.11407   0.10920  -0.0830  0.0225  1.0000  -7.0398   0.0000   0.0000   0.0000   0.2613
  19.900   1.6565   0.11587   0.11103  -0.0834  0.0223  1.0000  -7.0634   0.0000   0.0000   0.0000   0.2614
  20.000   1.6550   0.11740   0.11260  -0.0837  0.0221  1.0000  -7.0985   0.0000   0.0000   0.0000   0.2613


