xflr5 v6.57

 Calculated polar for: reaf

 1 1 Reynolds number fixed          Mach number fixed         

 xtrf =   1.000 (top)        1.000 (bottom)
 Mach =   0.000     Re =     0.140 e 6     Ncrit =   9.000

  alpha     CL        CD       CDp       Cm    Top Xtr Bot Xtr   Cpmin    Chinge    XCp    
 ------- -------- --------- --------- -------- ------- ------- -------- --------- ---------
  -9.800  -0.0911   0.10196   0.09763  -0.0982  0.9564  0.0857  -1.4570   0.0000   0.0000   0.0000  -0.9071
  -9.700  -0.0827   0.10066   0.09631  -0.0991  0.9554  0.0868  -1.4333   0.0000   0.0000   0.0000  -1.0339
  -9.600  -0.0784   0.09952   0.09517  -0.0999  0.9532  0.0879  -1.4274   0.0000   0.0000   0.0000  -1.1142
  -9.500  -0.0754   0.09819   0.09384  -0.1014  0.9512  0.0895  -1.4401   0.0000   0.0000   0.0000  -1.1878
  -9.400  -0.0890   0.09660   0.09227  -0.1064  0.9472  0.0912  -1.5763   0.0000   0.0000   0.0000  -1.0238
  -9.100   0.0648   0.06852   0.06440  -0.1109  0.9130  0.1031  -1.0500   0.0000   0.0000   0.0000   2.0303
  -9.000   0.0602   0.06719   0.06307  -0.1120  0.9117  0.1051  -1.0840   0.0000   0.0000   0.0000   2.1813
  -8.900   0.0442   0.06599   0.06190  -0.1136  0.9090  0.1060  -1.1703   0.0000   0.0000   0.0000   2.9153
  -8.800  -0.0544   0.08927   0.08491  -0.1094  0.9367  0.0976  -1.4803   0.0000   0.0000   0.0000  -1.8796
  -8.600  -0.0550   0.08635   0.08201  -0.1123  0.9318  0.0993  -1.5296   0.0000   0.0000   0.0000  -1.9083
  -8.500  -0.0471   0.08557   0.08122  -0.1114  0.9299  0.1000  -1.4851   0.0000   0.0000   0.0000  -2.2491
  -8.400  -0.0409   0.08479   0.08044  -0.1111  0.9278  0.1012  -1.4540   0.0000   0.0000   0.0000  -2.6192
  -8.300  -0.0365   0.08378   0.07942  -0.1117  0.9260  0.1029  -1.4426   0.0000   0.0000   0.0000  -2.9798
  -8.200  -0.0424   0.08267   0.07833  -0.1135  0.9222  0.1052  -1.4901   0.0000   0.0000   0.0000  -2.5692
  -8.100  -0.0687   0.08107   0.07678  -0.1183  0.9152  0.1061  -1.6573   0.0000   0.0000   0.0000  -1.5601
  -7.900  -0.0340   0.07951   0.07518  -0.1142  0.9155  0.1083  -1.4666   0.0000   0.0000   0.0000  -3.2851
  -7.800  -0.0296   0.07871   0.07438  -0.1142  0.9134  0.1099  -1.4471   0.0000   0.0000   0.0000  -3.7986
  -7.700  -0.0303   0.07750   0.07317  -0.1157  0.9111  0.1123  -1.4668   0.0000   0.0000   0.0000  -3.7552
  -7.600  -0.0636   0.07533   0.07105  -0.1236  0.9028  0.1140  -1.6785   0.0000   0.0000   0.0000  -1.7793
  -7.300  -0.0352   0.07394   0.06966  -0.1164  0.8993  0.1162  -1.4891   0.0000   0.0000   0.0000  -3.2138
  -7.200  -0.0304   0.07306   0.06877  -0.1166  0.8976  0.1176  -1.4746   0.0000   0.0000   0.0000  -3.7539
  -7.100  -0.0306   0.07195   0.06766  -0.1181  0.8951  0.1198  -1.4898   0.0000   0.0000   0.0000  -3.7746
  -6.400  -0.0915   0.04417   0.03856  -0.1414  0.8670  0.0771  -2.4926   0.0000   0.0000   0.0000  -1.3523
  -6.300  -0.0818   0.04300   0.03734  -0.1419  0.8658  0.0766  -2.4682   0.0000   0.0000   0.0000  -1.5472
  -6.200  -0.0718   0.04137   0.03556  -0.1429  0.8648  0.0761  -2.4648   0.0000   0.0000   0.0000  -1.8108
  -6.100  -0.0610   0.03954   0.03349  -0.1441  0.8639  0.0760  -2.4711   0.0000   0.0000   0.0000  -2.1921
  -6.000  -0.0679   0.03946   0.03336  -0.1417  0.8589  0.0759  -2.4791   0.0000   0.0000   0.0000  -1.9094
  -5.900  -0.0583   0.03795   0.03160  -0.1424  0.8576  0.0760  -2.4815   0.0000   0.0000   0.0000  -2.2746
  -5.800  -0.0467   0.03647   0.02986  -0.1433  0.8566  0.0761  -2.4772   0.0000   0.0000   0.0000  -2.9187
  -5.700  -0.0339   0.03508   0.02821  -0.1441  0.8558  0.0762  -2.4660   0.0000   0.0000   0.0000  -4.1395
  -5.300   0.0019   0.05232   0.04767  -0.1322  0.8492  0.1597  -1.5508   0.0000   0.0000   0.0000  71.0127
  -5.200   0.0120   0.05126   0.04657  -0.1329  0.8481  0.1620  -1.5283   0.0000   0.0000   0.0000  11.5965
  -5.100   0.0224   0.04935   0.04451  -0.1355  0.8470  0.1683  -1.5318   0.0000   0.0000   0.0000   6.4768
  -5.000   0.0214   0.03149   0.02382  -0.1425  0.8414  0.0809  -2.2886   0.0000   0.0000   0.0000   7.1010
  -4.900   0.0341   0.03095   0.02312  -0.1428  0.8403  0.0824  -2.2550   0.0000   0.0000   0.0000   4.5679
  -4.800   0.0481   0.03031   0.02222  -0.1434  0.8394  0.0838  -2.2267   0.0000   0.0000   0.0000   3.3183
  -4.700   0.0623   0.02969   0.02152  -0.1439  0.8386  0.0849  -2.1842   0.0000   0.0000   0.0000   2.6265
  -4.600   0.0767   0.02924   0.02110  -0.1445  0.8380  0.0863  -2.1293   0.0000   0.0000   0.0000   2.1876
  -4.500   0.0731   0.02956   0.02142  -0.1424  0.8331  0.0868  -2.1167   0.0000   0.0000   0.0000   2.2533
  -4.400   0.0852   0.02926   0.02106  -0.1427  0.8318  0.0887  -2.0718   0.0000   0.0000   0.0000   1.9701
  -4.300   0.0990   0.02888   0.02047  -0.1430  0.8308  0.0911  -2.0332   0.0000   0.0000   0.0000   1.7334
  -4.200   0.1127   0.02845   0.02011  -0.1435  0.8300  0.0930  -1.9777   0.0000   0.0000   0.0000   1.5564
  -4.100   0.1271   0.02810   0.01975  -0.1440  0.8293  0.0953  -1.9274   0.0000   0.0000   0.0000   1.4118
  -3.900   0.1375   0.02814   0.01961  -0.1424  0.8233  0.0984  -1.8838   0.0000   0.0000   0.0000   1.3111
  -3.800   0.1500   0.02781   0.01937  -0.1427  0.8222  0.1007  -1.8362   0.0000   0.0000   0.0000   1.2238
  -3.700   0.1637   0.02754   0.01908  -0.1431  0.8213  0.1038  -1.7897   0.0000   0.0000   0.0000   1.1441
  -3.600   0.1781   0.02719   0.01868  -0.1435  0.8205  0.1072  -1.7457   0.0000   0.0000   0.0000   1.0739
  -3.500   0.1926   0.02687   0.01840  -0.1440  0.8199  0.1105  -1.6955   0.0000   0.0000   0.0000   1.0140
  -3.300   0.2019   0.02708   0.01858  -0.1423  0.8135  0.1153  -1.6431   0.0000   0.0000   0.0000   0.9698
  -3.200   0.2152   0.02684   0.01838  -0.1426  0.8124  0.1195  -1.5956   0.0000   0.0000   0.0000   0.9266
  -3.100   0.2292   0.02655   0.01810  -0.1431  0.8116  0.1244  -1.5485   0.0000   0.0000   0.0000   0.8865
  -3.000   0.2439   0.02628   0.01779  -0.1435  0.8109  0.1303  -1.5018   0.0000   0.0000   0.0000   0.8497
  -2.900   0.2432   0.02665   0.01823  -0.1420  0.8064  0.1324  -1.4830   0.0000   0.0000   0.0000   0.8451
  -2.800   0.2542   0.02654   0.01812  -0.1421  0.8047  0.1385  -1.4423   0.0000   0.0000   0.0000   0.8190
  -2.700   0.2671   0.02632   0.01796  -0.1423  0.8035  0.1454  -1.3998   0.0000   0.0000   0.0000   0.7924
  -2.600   0.2810   0.02605   0.01775  -0.1427  0.8026  0.1540  -1.3571   0.0000   0.0000   0.0000   0.7667
  -2.500   0.2954   0.02577   0.01750  -0.1432  0.8019  0.1646  -1.3136   0.0000   0.0000   0.0000   0.7426
  -2.400   0.3101   0.02547   0.01725  -0.1437  0.8012  0.1774  -1.2692   0.0000   0.0000   0.0000   0.7206
  -2.200   0.3200   0.02583   0.01774  -0.1423  0.7945  0.1975  -1.2162   0.0000   0.0000   0.0000   0.7013
  -2.100   0.3337   0.02558   0.01757  -0.1427  0.7935  0.2169  -1.1729   0.0000   0.0000   0.0000   0.6837
  -2.000   0.3480   0.02529   0.01739  -0.1432  0.7927  0.2394  -1.1278   0.0000   0.0000   0.0000   0.6670
  -1.900   0.3625   0.02498   0.01721  -0.1438  0.7920  0.2657  -1.0817   0.0000   0.0000   0.0000   0.6514
  -1.800   0.3772   0.02468   0.01702  -0.1443  0.7915  0.2961  -1.0352   0.0000   0.0000   0.0000   0.6369
  -1.600   0.3868   0.02513   0.01769  -0.1430  0.7843  0.3404  -0.9829   0.0000   0.0000   0.0000   0.6235
  -1.500   0.4006   0.02487   0.01757  -0.1433  0.7834  0.3779  -0.9410   0.0000   0.0000   0.0000   0.6113
  -1.400   0.4146   0.02459   0.01744  -0.1437  0.7827  0.4203  -0.8987   0.0000   0.0000   0.0000   0.5997
  -1.300   0.4284   0.02430   0.01733  -0.1439  0.7821  0.4659  -0.8565   0.0000   0.0000   0.0000   0.5887
  -1.100   0.4375   0.02479   0.01809  -0.1423  0.7750  0.5346  -0.8062   0.0000   0.0000   0.0000   0.5775
  -1.000   0.4496   0.02458   0.01803  -0.1421  0.7740  0.5821  -0.7700   0.0000   0.0000   0.0000   0.5681
  -0.900   0.4616   0.02435   0.01795  -0.1418  0.7732  0.6288  -0.7789   0.0000   0.0000   0.0000   0.5589
  -0.800   0.4735   0.02413   0.01784  -0.1414  0.7726  0.6736  -0.7878   0.0000   0.0000   0.0000   0.5501
  -0.700   0.4848   0.02392   0.01773  -0.1408  0.7719  0.7142  -0.7964   0.0000   0.0000   0.0000   0.5417
  -0.600   0.4797   0.02472   0.01862  -0.1388  0.7654  0.7345  -0.7921   0.0000   0.0000   0.0000   0.5405
  -0.500   0.4893   0.02455   0.01852  -0.1380  0.7643  0.7710  -0.7998   0.0000   0.0000   0.0000   0.5327
  -0.400   0.4988   0.02434   0.01837  -0.1369  0.7635  0.8066  -0.8078   0.0000   0.0000   0.0000   0.5251
  -0.300   0.5079   0.02410   0.01818  -0.1358  0.7628  0.8436  -0.8157   0.0000   0.0000   0.0000   0.5176
  -0.200   0.5165   0.02382   0.01795  -0.1344  0.7621  0.8843  -0.8234   0.0000   0.0000   0.0000   0.5103
   0.000   0.5309   0.02439   0.01854  -0.1338  0.7544  1.0000  -0.8329   0.0000   0.0000   0.0000   0.5017
   0.100   0.5467   0.02426   0.01832  -0.1344  0.7537  1.0000  -0.8444   0.0000   0.0000   0.0000   0.4954
   0.200   0.5625   0.02411   0.01810  -0.1351  0.7530  1.0000  -0.8561   0.0000   0.0000   0.0000   0.4894
   0.300   0.5783   0.02394   0.01786  -0.1357  0.7524  1.0000  -0.8679   0.0000   0.0000   0.0000   0.4836
   0.500   0.5894   0.02475   0.01861  -0.1347  0.7447  1.0000  -0.8759   0.0000   0.0000   0.0000   0.4773
   0.600   0.6046   0.02460   0.01840  -0.1352  0.7439  1.0000  -0.8877   0.0000   0.0000   0.0000   0.4721
   0.700   0.6199   0.02444   0.01817  -0.1357  0.7432  1.0000  -0.8997   0.0000   0.0000   0.0000   0.4672
   0.800   0.6353   0.02426   0.01794  -0.1362  0.7426  1.0000  -0.9119   0.0000   0.0000   0.0000   0.4625
   1.100   0.6612   0.02489   0.01847  -0.1355  0.7341  1.0000  -0.9331   0.0000   0.0000   0.0000   0.4525
   1.200   0.6762   0.02471   0.01825  -0.1359  0.7333  1.0000  -0.9456   0.0000   0.0000   0.0000   0.4484
   1.300   0.6916   0.02451   0.01800  -0.1363  0.7327  1.0000  -0.9586   0.0000   0.0000   0.0000   0.4444
   1.400   0.7072   0.02430   0.01774  -0.1368  0.7322  1.0000  -0.9720   0.0000   0.0000   0.0000   0.4405
   1.600   0.7175   0.02510   0.01852  -0.1355  0.7242  1.0000  -0.9818   0.0000   0.0000   0.0000   0.4357
   1.700   0.7325   0.02490   0.01828  -0.1359  0.7234  1.0000  -0.9949   0.0000   0.0000   0.0000   0.4322
   1.800   0.7479   0.02467   0.01801  -0.1363  0.7228  1.0000  -1.0085   0.0000   0.0000   0.0000   0.4287
   1.900   0.7635   0.02443   0.01773  -0.1367  0.7222  1.0000  -1.0226   0.0000   0.0000   0.0000   0.4254
   2.100   0.7741   0.02519   0.01848  -0.1355  0.7142  1.0000  -1.0339   0.0000   0.0000   0.0000   0.4210
   2.200   0.7893   0.02496   0.01822  -0.1358  0.7134  1.0000  -1.0478   0.0000   0.0000   0.0000   0.4180
   2.300   0.8047   0.02471   0.01793  -0.1362  0.7127  1.0000  -1.0622   0.0000   0.0000   0.0000   0.4150
   2.400   0.8205   0.02443   0.01763  -0.1367  0.7122  1.0000  -1.0770   0.0000   0.0000   0.0000   0.4121
   2.500   0.8363   0.02416   0.01732  -0.1371  0.7116  1.0000  -1.0922   0.0000   0.0000   0.0000   0.4094
   2.700   0.8466   0.02490   0.01807  -0.1357  0.7034  1.0000  -1.1049   0.0000   0.0000   0.0000   0.4055
   2.800   0.8622   0.02462   0.01776  -0.1361  0.7027  1.0000  -1.1204   0.0000   0.0000   0.0000   0.4029
   2.900   0.8781   0.02433   0.01744  -0.1366  0.7021  1.0000  -1.1361   0.0000   0.0000   0.0000   0.4004
   3.000   0.8940   0.02403   0.01712  -0.1370  0.7015  1.0000  -1.1520   0.0000   0.0000   0.0000   0.3980
   3.200   0.9048   0.02471   0.01781  -0.1356  0.6933  1.0000  -1.1664   0.0000   0.0000   0.0000   0.3943
   3.300   0.9205   0.02441   0.01749  -0.1360  0.6925  1.0000  -1.1829   0.0000   0.0000   0.0000   0.3921
   3.400   0.9365   0.02409   0.01715  -0.1365  0.6918  1.0000  -1.1997   0.0000   0.0000   0.0000   0.3899
   3.500   0.9526   0.02377   0.01680  -0.1369  0.6911  1.0000  -1.2169   0.0000   0.0000   0.0000   0.3878
   3.700   0.9642   0.02436   0.01741  -0.1356  0.6831  1.0000  -1.2335   0.0000   0.0000   0.0000   0.3843
   3.800   0.9800   0.02404   0.01708  -0.1360  0.6822  1.0000  -1.2512   0.0000   0.0000   0.0000   0.3824
   3.900   0.9961   0.02371   0.01673  -0.1364  0.6814  1.0000  -1.2693   0.0000   0.0000   0.0000   0.3804
   4.000   1.0125   0.02337   0.01637  -0.1370  0.6806  1.0000  -1.2881   0.0000   0.0000   0.0000   0.3786
   4.200   1.0245   0.02388   0.01692  -0.1356  0.6726  1.0000  -1.3079   0.0000   0.0000   0.0000   0.3754
   4.300   1.0405   0.02355   0.01657  -0.1360  0.6716  1.0000  -1.3273   0.0000   0.0000   0.0000   0.3736
   4.400   1.0569   0.02321   0.01620  -0.1365  0.6707  1.0000  -1.3477   0.0000   0.0000   0.0000   0.3719
   4.600   1.0704   0.02361   0.01664  -0.1353  0.6631  1.0000  -1.3705   0.0000   0.0000   0.0000   0.3689
   4.700   1.0859   0.02330   0.01632  -0.1357  0.6617  1.0000  -1.3908   0.0000   0.0000   0.0000   0.3673
   4.800   1.1024   0.02295   0.01595  -0.1362  0.6606  1.0000  -1.4121   0.0000   0.0000   0.0000   0.3658
   4.900   1.1193   0.02258   0.01556  -0.1368  0.6597  1.0000  -1.4344   0.0000   0.0000   0.0000   0.3643
   5.000   1.1176   0.02323   0.01627  -0.1352  0.6533  1.0000  -1.4384   0.0000   0.0000   0.0000   0.3628
   5.100   1.1326   0.02294   0.01597  -0.1355  0.6516  1.0000  -1.4590   0.0000   0.0000   0.0000   0.3614
   5.200   1.1489   0.02260   0.01561  -0.1360  0.6503  1.0000  -1.4817   0.0000   0.0000   0.0000   0.3600
   5.300   1.1661   0.02222   0.01522  -0.1367  0.6491  1.0000  -1.5055   0.0000   0.0000   0.0000   0.3587
   5.400   1.1653   0.02279   0.01585  -0.1351  0.6430  1.0000  -1.5112   0.0000   0.0000   0.0000   0.3572
   5.500   1.1799   0.02253   0.01557  -0.1354  0.6410  1.0000  -1.5342   0.0000   0.0000   0.0000   0.3559
   5.600   1.1965   0.02218   0.01520  -0.1359  0.6395  1.0000  -1.5596   0.0000   0.0000   0.0000   0.3546
   5.800   1.2128   0.02235   0.01541  -0.1349  0.6319  1.0000  -1.5935   0.0000   0.0000   0.0000   0.3520
   5.900   1.2280   0.02206   0.01511  -0.1353  0.6298  1.0000  -1.6192   0.0000   0.0000   0.0000   0.3508
   6.000   1.2450   0.02170   0.01472  -0.1360  0.6282  1.0000  -1.6470   0.0000   0.0000   0.0000   0.3496
   6.100   1.2473   0.02207   0.01516  -0.1347  0.6227  1.0000  -1.6584   0.0000   0.0000   0.0000   0.3483
   6.200   1.2606   0.02188   0.01496  -0.1348  0.6199  1.0000  -1.6830   0.0000   0.0000   0.0000   0.3471
   6.300   1.2771   0.02154   0.01460  -0.1354  0.6178  1.0000  -1.7119   0.0000   0.0000   0.0000   0.3460
   6.400   1.2819   0.02178   0.01488  -0.1345  0.6129  1.0000  -1.7272   0.0000   0.0000   0.0000   0.3447
   6.500   1.2936   0.02167   0.01476  -0.1344  0.6095  1.0000  -1.7520   0.0000   0.0000   0.0000   0.3435
   6.600   1.3099   0.02136   0.01442  -0.1349  0.6071  1.0000  -1.7864   0.0000   0.0000   0.0000   0.3425
   6.700   1.3147   0.02157   0.01469  -0.1340  0.6021  1.0000  -1.8057   0.0000   0.0000   0.0000   0.3412
   6.800   1.3265   0.02146   0.01458  -0.1339  0.5985  1.0000  -1.8351   0.0000   0.0000   0.0000   0.3402
   6.900   1.3429   0.02117   0.01425  -0.1345  0.5959  1.0000  -1.8724   0.0000   0.0000   0.0000   0.3392
   7.000   1.3462   0.02145   0.01459  -0.1333  0.5904  1.0000  -1.8915   0.0000   0.0000   0.0000   0.3379
   7.100   1.3591   0.02130   0.01442  -0.1334  0.5868  1.0000  -1.9269   0.0000   0.0000   0.0000   0.3369
   7.200   1.3702   0.02125   0.01437  -0.1333  0.5829  1.0000  -1.9595   0.0000   0.0000   0.0000   0.3358
   7.300   1.3771   0.02136   0.01451  -0.1326  0.5779  1.0000  -1.9867   0.0000   0.0000   0.0000   0.3347
   7.400   1.3920   0.02115   0.01427  -0.1330  0.5746  1.0000  -2.0275   0.0000   0.0000   0.0000   0.3338
   7.500   1.3965   0.02136   0.01453  -0.1320  0.5691  1.0000  -2.0511   0.0000   0.0000   0.0000   0.3326
   7.600   1.4084   0.02127   0.01443  -0.1319  0.5649  1.0000  -2.0877   0.0000   0.0000   0.0000   0.3316
   7.700   1.4167   0.02134   0.01451  -0.1314  0.5600  1.0000  -2.1193   0.0000   0.0000   0.0000   0.3305
   7.800   1.4255   0.02137   0.01455  -0.1310  0.5550  1.0000  -2.1520   0.0000   0.0000   0.0000   0.3295
   7.900   1.4363   0.02134   0.01450  -0.1308  0.5505  1.0000  -2.1902   0.0000   0.0000   0.0000   0.3285
   8.000   1.4425   0.02148   0.01466  -0.1300  0.5449  1.0000  -2.2201   0.0000   0.0000   0.0000   0.3274
   8.100   1.4545   0.02141   0.01456  -0.1300  0.5403  1.0000  -2.2608   0.0000   0.0000   0.0000   0.3264
   8.200   1.4591   0.02160   0.01479  -0.1290  0.5343  1.0000  -2.2880   0.0000   0.0000   0.0000   0.3253
   8.300   1.4708   0.02156   0.01472  -0.1289  0.5295  1.0000  -2.3293   0.0000   0.0000   0.0000   0.3244
   8.400   1.4750   0.02177   0.01497  -0.1278  0.5234  1.0000  -2.3573   0.0000   0.0000   0.0000   0.3232
   8.500   1.4856   0.02177   0.01494  -0.1276  0.5184  1.0000  -2.3982   0.0000   0.0000   0.0000   0.3223
   8.600   1.4901   0.02198   0.01517  -0.1266  0.5122  1.0000  -2.4271   0.0000   0.0000   0.0000   0.3212
   8.700   1.4991   0.02204   0.01521  -0.1262  0.5069  1.0000  -2.4652   0.0000   0.0000   0.0000   0.3202
   8.800   1.5042   0.02223   0.01541  -0.1253  0.5007  1.0000  -2.4957   0.0000   0.0000   0.0000   0.3192
   8.900   1.5113   0.02236   0.01554  -0.1246  0.4950  1.0000  -2.5340   0.0000   0.0000   0.0000   0.3182
   9.000   1.5175   0.02252   0.01568  -0.1238  0.4889  1.0000  -2.5748   0.0000   0.0000   0.0000   0.3171
   9.100   1.5220   0.02272   0.01589  -0.1227  0.4828  1.0000  -2.6132   0.0000   0.0000   0.0000   0.3160
   9.200   1.5292   0.02283   0.01598  -0.1221  0.4769  1.0000  -2.6594   0.0000   0.0000   0.0000   0.3150
   9.300   1.5312   0.02311   0.01628  -0.1207  0.4705  1.0000  -2.6924   0.0000   0.0000   0.0000   0.3138
   9.400   1.5392   0.02322   0.01634  -0.1201  0.4646  1.0000  -2.7414   0.0000   0.0000   0.0000   0.3129
   9.500   1.5399   0.02356   0.01671  -0.1186  0.4580  1.0000  -2.7713   0.0000   0.0000   0.0000   0.3117
   9.600   1.5451   0.02377   0.01690  -0.1177  0.4518  1.0000  -2.8132   0.0000   0.0000   0.0000   0.3107
   9.700   1.5484   0.02405   0.01718  -0.1166  0.4454  1.0000  -2.8503   0.0000   0.0000   0.0000   0.3096
   9.800   1.5512   0.02437   0.01749  -0.1154  0.4389  1.0000  -2.8861   0.0000   0.0000   0.0000   0.3085
   9.900   1.5570   0.02459   0.01767  -0.1146  0.4328  1.0000  -2.9302   0.0000   0.0000   0.0000   0.3076
  10.000   1.5574   0.02501   0.01812  -0.1132  0.4262  1.0000  -2.9596   0.0000   0.0000   0.0000   0.3065
  10.100   1.5619   0.02530   0.01837  -0.1123  0.4201  1.0000  -3.0005   0.0000   0.0000   0.0000   0.3055
  10.200   1.5635   0.02570   0.01879  -0.1111  0.4136  1.0000  -3.0335   0.0000   0.0000   0.0000   0.3045
  10.300   1.5661   0.02608   0.01917  -0.1100  0.4073  1.0000  -3.0693   0.0000   0.0000   0.0000   0.3035
  10.400   1.5696   0.02643   0.01949  -0.1091  0.4011  1.0000  -3.1078   0.0000   0.0000   0.0000   0.3025
  10.500   1.5704   0.02691   0.01999  -0.1079  0.3946  1.0000  -3.1387   0.0000   0.0000   0.0000   0.3015
  10.600   1.5741   0.02728   0.02031  -0.1069  0.3886  1.0000  -3.1781   0.0000   0.0000   0.0000   0.3006
  10.700   1.5746   0.02779   0.02085  -0.1057  0.3821  1.0000  -3.2082   0.0000   0.0000   0.0000   0.2996
  10.800   1.5768   0.02825   0.02129  -0.1047  0.3759  1.0000  -3.2434   0.0000   0.0000   0.0000   0.2987
  10.900   1.5788   0.02872   0.02174  -0.1037  0.3697  1.0000  -3.2780   0.0000   0.0000   0.0000   0.2978
  11.000   1.5795   0.02926   0.02230  -0.1026  0.3633  1.0000  -3.3090   0.0000   0.0000   0.0000   0.2968
  11.100   1.5823   0.02971   0.02270  -0.1017  0.3575  1.0000  -3.3463   0.0000   0.0000   0.0000   0.2959
  11.200   1.5821   0.03033   0.02336  -0.1005  0.3509  1.0000  -3.3751   0.0000   0.0000   0.0000   0.2950
  11.300   1.5837   0.03087   0.02387  -0.0995  0.3449  1.0000  -3.4109   0.0000   0.0000   0.0000   0.2942
  11.400   1.5846   0.03145   0.02445  -0.0985  0.3388  1.0000  -3.4448   0.0000   0.0000   0.0000   0.2933
  11.500   1.5851   0.03207   0.02509  -0.0975  0.3326  1.0000  -3.4773   0.0000   0.0000   0.0000   0.2924
  11.600   1.5868   0.03263   0.02559  -0.0966  0.3269  1.0000  -3.5142   0.0000   0.0000   0.0000   0.2916
  11.700   1.5864   0.03333   0.02633  -0.0955  0.3204  1.0000  -3.5437   0.0000   0.0000   0.0000   0.2907
  11.800   1.5873   0.03396   0.02693  -0.0946  0.3147  1.0000  -3.5779   0.0000   0.0000   0.0000   0.2899
  11.900   1.5874   0.03464   0.02762  -0.0936  0.3086  1.0000  -3.6095   0.0000   0.0000   0.0000   0.2891
  12.000   1.5876   0.03534   0.02833  -0.0927  0.3026  1.0000  -3.6411   0.0000   0.0000   0.0000   0.2883
  12.100   1.5881   0.03602   0.02896  -0.0918  0.2970  1.0000  -3.6746   0.0000   0.0000   0.0000   0.2875
  12.200   1.5876   0.03679   0.02977  -0.0908  0.2908  1.0000  -3.7038   0.0000   0.0000   0.0000   0.2867
  12.300   1.5879   0.03751   0.03045  -0.0899  0.2852  1.0000  -3.7363   0.0000   0.0000   0.0000   0.2859
  12.400   1.5873   0.03831   0.03126  -0.0890  0.2792  1.0000  -3.7656   0.0000   0.0000   0.0000   0.2852
  12.500   1.5870   0.03909   0.03204  -0.0882  0.2735  1.0000  -3.7959   0.0000   0.0000   0.0000   0.2844
  12.600   1.5867   0.03988   0.03281  -0.0873  0.2680  1.0000  -3.8263   0.0000   0.0000   0.0000   0.2837
  12.700   1.5860   0.04073   0.03368  -0.0864  0.2621  1.0000  -3.8549   0.0000   0.0000   0.0000   0.2829
  12.800   1.5856   0.04153   0.03444  -0.0856  0.2569  1.0000  -3.8856   0.0000   0.0000   0.0000   0.2822
  12.900   1.5845   0.04244   0.03538  -0.0848  0.2510  1.0000  -3.9127   0.0000   0.0000   0.0000   0.2815
  13.000   1.5838   0.04331   0.03624  -0.0840  0.2456  1.0000  -3.9417   0.0000   0.0000   0.0000   0.2808
  13.100   1.5828   0.04422   0.03714  -0.0832  0.2401  1.0000  -3.9696   0.0000   0.0000   0.0000   0.2802
  13.200   1.5819   0.04516   0.03809  -0.0825  0.2346  1.0000  -3.9972   0.0000   0.0000   0.0000   0.2795
  13.300   1.5809   0.04607   0.03896  -0.0817  0.2297  1.0000  -4.0258   0.0000   0.0000   0.0000   0.2788
  13.400   1.5797   0.04707   0.04000  -0.0810  0.2239  1.0000  -4.0519   0.0000   0.0000   0.0000   0.2782
  13.500   1.5787   0.04804   0.04092  -0.0803  0.2191  1.0000  -4.0798   0.0000   0.0000   0.0000   0.2776
  13.600   1.5773   0.04908   0.04198  -0.0796  0.2136  1.0000  -4.1057   0.0000   0.0000   0.0000   0.2770
  13.700   1.5762   0.05010   0.04300  -0.0790  0.2086  1.0000  -4.1325   0.0000   0.0000   0.0000   0.2764
  13.800   1.5748   0.05115   0.04403  -0.0783  0.2036  1.0000  -4.1588   0.0000   0.0000   0.0000   0.2758
  13.900   1.5736   0.05223   0.04513  -0.0778  0.1985  1.0000  -4.1845   0.0000   0.0000   0.0000   0.2753
  14.000   1.5723   0.05329   0.04614  -0.0771  0.1940  1.0000  -4.2127   0.0000   0.0000   0.0000   0.2747
  14.100   1.5708   0.05443   0.04732  -0.0766  0.1888  1.0000  -4.2391   0.0000   0.0000   0.0000   0.2742
  14.300   1.5678   0.05670   0.04958  -0.0755  0.1795  1.0000  -4.2933   0.0000   0.0000   0.0000   0.2731
  14.400   1.5664   0.05783   0.05068  -0.0750  0.1752  1.0000  -4.3209   0.0000   0.0000   0.0000   0.2726
  14.500   1.5648   0.05902   0.05189  -0.0746  0.1706  1.0000  -4.3468   0.0000   0.0000   0.0000   0.2722
  14.600   1.5634   0.06019   0.05304  -0.0741  0.1664  1.0000  -4.3739   0.0000   0.0000   0.0000   0.2717
  14.700   1.5618   0.06140   0.05425  -0.0737  0.1621  1.0000  -4.4001   0.0000   0.0000   0.0000   0.2712
  14.800   1.5604   0.06259   0.05544  -0.0732  0.1581  1.0000  -4.4267   0.0000   0.0000   0.0000   0.2708
  14.900   1.5589   0.06382   0.05665  -0.0728  0.1541  1.0000  -4.4530   0.0000   0.0000   0.0000   0.2703
  15.000   1.5576   0.06503   0.05787  -0.0725  0.1502  1.0000  -4.4797   0.0000   0.0000   0.0000   0.2699
  15.100   1.5561   0.06627   0.05911  -0.0721  0.1464  1.0000  -4.5081   0.0000   0.0000   0.0000   0.2695
  15.200   1.5549   0.06749   0.06032  -0.0718  0.1428  1.0000  -4.5372   0.0000   0.0000   0.0000   0.2691
  15.300   1.5534   0.06875   0.06159  -0.0714  0.1392  1.0000  -4.5651   0.0000   0.0000   0.0000   0.2687
  15.400   1.5525   0.06993   0.06274  -0.0711  0.1360  1.0000  -4.5956   0.0000   0.0000   0.0000   0.2683
  15.500   1.5509   0.07124   0.06409  -0.0708  0.1324  1.0000  -4.6222   0.0000   0.0000   0.0000   0.2679
  15.600   1.5506   0.07233   0.06510  -0.0705  0.1296  1.0000  -4.6561   0.0000   0.0000   0.0000   0.2675
  15.700   1.5487   0.07373   0.06659  -0.0703  0.1262  1.0000  -4.6801   0.0000   0.0000   0.0000   0.2672
  15.800   1.5480   0.07491   0.06774  -0.0700  0.1234  1.0000  -4.7122   0.0000   0.0000   0.0000   0.2668
  15.900   1.5470   0.07618   0.06903  -0.0698  0.1205  1.0000  -4.7431   0.0000   0.0000   0.0000   0.2665
  16.000   1.5460   0.07745   0.07032  -0.0696  0.1177  1.0000  -4.7743   0.0000   0.0000   0.0000   0.2661
  16.100   1.5464   0.07847   0.07127  -0.0693  0.1153  1.0000  -4.8137   0.0000   0.0000   0.0000   0.2657
  16.200   1.5446   0.07991   0.07280  -0.0692  0.1124  1.0000  -4.8392   0.0000   0.0000   0.0000   0.2655
  16.300   1.5443   0.08108   0.07395  -0.0690  0.1100  1.0000  -4.8744   0.0000   0.0000   0.0000   0.2651
  16.400   1.5445   0.08218   0.07503  -0.0688  0.1077  1.0000  -4.9111   0.0000   0.0000   0.0000   0.2647
  16.500   1.5432   0.08355   0.07647  -0.0687  0.1052  1.0000  -4.9390   0.0000   0.0000   0.0000   0.2645
  16.600   1.5435   0.08463   0.07752  -0.0685  0.1030  1.0000  -4.9770   0.0000   0.0000   0.0000   0.2641
  16.700   1.5438   0.08573   0.07862  -0.0683  0.1009  1.0000  -5.0138   0.0000   0.0000   0.0000   0.2638
  16.800   1.5425   0.08712   0.08007  -0.0683  0.0987  1.0000  -5.0411   0.0000   0.0000   0.0000   0.2635
  16.900   1.5429   0.08819   0.08113  -0.0681  0.0967  1.0000  -5.0793   0.0000   0.0000   0.0000   0.2632
  17.000   1.5442   0.08912   0.08202  -0.0679  0.0948  1.0000  -5.1213   0.0000   0.0000   0.0000   0.2628
  17.100   1.5424   0.09062   0.08361  -0.0679  0.0928  1.0000  -5.1449   0.0000   0.0000   0.0000   0.2626
  17.200   1.5426   0.09175   0.08475  -0.0678  0.0909  1.0000  -5.1810   0.0000   0.0000   0.0000   0.2623
  17.300   1.5464   0.09226   0.08515  -0.0674  0.0891  1.0000  -5.2375   0.0000   0.0000   0.0000   0.2617
  17.400   1.5436   0.09394   0.08696  -0.0676  0.0874  1.0000  -5.2545   0.0000   0.0000   0.0000   0.2616
  17.500   1.5429   0.09527   0.08834  -0.0676  0.0857  1.0000  -5.2841   0.0000   0.0000   0.0000   0.2614
  17.600   1.5446   0.09616   0.08919  -0.0674  0.0840  1.0000  -5.3289   0.0000   0.0000   0.0000   0.2610
  17.700   1.5468   0.09697   0.08997  -0.0672  0.0824  1.0000  -5.3746   0.0000   0.0000   0.0000   0.2606
  17.800   1.5444   0.09861   0.09172  -0.0674  0.0809  1.0000  -5.3930   0.0000   0.0000   0.0000   0.2605
  17.900   1.5441   0.09986   0.09301  -0.0674  0.0793  1.0000  -5.4252   0.0000   0.0000   0.0000   0.2603
  18.000   1.5472   0.10053   0.09361  -0.0673  0.0778  1.0000  -5.4772   0.0000   0.0000   0.0000   0.2599
  18.100   1.5489   0.10145   0.09453  -0.0671  0.0764  1.0000  -5.5188   0.0000   0.0000   0.0000   0.2595
  18.200   1.5465   0.10310   0.09630  -0.0673  0.0751  1.0000  -5.5360   0.0000   0.0000   0.0000   0.2595
  18.300   1.5462   0.10438   0.09762  -0.0674  0.0737  1.0000  -5.5667   0.0000   0.0000   0.0000   0.2593
  18.400   1.5494   0.10503   0.09823  -0.0673  0.0724  1.0000  -5.6184   0.0000   0.0000   0.0000   0.2589
  18.500   1.5548   0.10532   0.09845  -0.0669  0.0710  1.0000  -5.6805   0.0000   0.0000   0.0000   0.2582
  18.600   1.5513   0.10716   0.10043  -0.0672  0.0699  1.0000  -5.6897   0.0000   0.0000   0.0000   0.2583
  18.700   1.5500   0.10863   0.10197  -0.0674  0.0688  1.0000  -5.7126   0.0000   0.0000   0.0000   0.2582
  18.800   1.5509   0.10971   0.10307  -0.0675  0.0676  1.0000  -5.7498   0.0000   0.0000   0.0000   0.2580
  18.900   1.5575   0.10977   0.10304  -0.0671  0.0664  1.0000  -5.8214   0.0000   0.0000   0.0000   0.2573
  19.000   1.5590   0.11074   0.10403  -0.0670  0.0653  1.0000  -5.8596   0.0000   0.0000   0.0000   0.2570
  19.100   1.5551   0.11265   0.10607  -0.0675  0.0644  1.0000  -5.8656   0.0000   0.0000   0.0000   0.2571
  19.200   1.5533   0.11422   0.10772  -0.0678  0.0634  1.0000  -5.8847   0.0000   0.0000   0.0000   0.2571
  19.300   1.5537   0.11540   0.10894  -0.0680  0.0625  1.0000  -5.9181   0.0000   0.0000   0.0000   0.2570
  19.400   1.5582   0.11585   0.10934  -0.0679  0.0614  1.0000  -5.9775   0.0000   0.0000   0.0000   0.2565
  19.500   1.5655   0.11579   0.10920  -0.0673  0.0603  1.0000  -6.0510   0.0000   0.0000   0.0000   0.2557
  19.600   1.5603   0.11798   0.11153  -0.0680  0.0596  1.0000  -6.0475   0.0000   0.0000   0.0000   0.2561
  19.700   1.5567   0.11987   0.11353  -0.0686  0.0589  1.0000  -6.0535   0.0000   0.0000   0.0000   0.2563
  19.800   1.5548   0.12150   0.11524  -0.0691  0.0582  1.0000  -6.0698   0.0000   0.0000   0.0000   0.2564
  19.900   1.5551   0.12273   0.11651  -0.0693  0.0574  1.0000  -6.1001   0.0000   0.0000   0.0000   0.2563
  20.000   1.5585   0.12338   0.11716  -0.0693  0.0566  1.0000  -6.1507   0.0000   0.0000   0.0000   0.2559


