xflr5 v6.57

 Calculated polar for: reaf

 1 1 Reynolds number fixed          Mach number fixed         

 xtrf =   1.000 (top)        1.000 (bottom)
 Mach =   0.000     Re =     0.720 e 6     Ncrit =   9.000

  alpha     CL        CD       CDp       Cm    Top Xtr Bot Xtr   Cpmin    Chinge    XCp    
 ------- -------- --------- --------- -------- ------- ------- -------- --------- ---------
 -10.000  -0.4543   0.02025   0.01517  -0.1373  0.8105  0.0231  -6.2986   0.0000   0.0000   0.0000  -0.0731
  -9.900  -0.4441   0.01996   0.01487  -0.1374  0.8092  0.0233  -6.2064   0.0000   0.0000   0.0000  -0.0804
  -9.800  -0.4339   0.01970   0.01459  -0.1375  0.8079  0.0234  -6.1140   0.0000   0.0000   0.0000  -0.0882
  -9.700  -0.4235   0.01944   0.01431  -0.1377  0.8065  0.0236  -6.0223   0.0000   0.0000   0.0000  -0.0964
  -9.600  -0.4132   0.01918   0.01401  -0.1378  0.8052  0.0238  -5.9318   0.0000   0.0000   0.0000  -0.1050
  -9.500  -0.4028   0.01892   0.01371  -0.1379  0.8040  0.0240  -5.8427   0.0000   0.0000   0.0000  -0.1140
  -9.400  -0.3924   0.01865   0.01339  -0.1380  0.8029  0.0242  -5.7552   0.0000   0.0000   0.0000  -0.1236
  -9.300  -0.3820   0.01837   0.01306  -0.1381  0.8018  0.0244  -5.6690   0.0000   0.0000   0.0000  -0.1336
  -9.200  -0.3716   0.01811   0.01274  -0.1382  0.8008  0.0247  -5.5832   0.0000   0.0000   0.0000  -0.1443
  -9.100  -0.3611   0.01782   0.01241  -0.1383  0.7995  0.0249  -5.4984   0.0000   0.0000   0.0000  -0.1557
  -9.000  -0.3505   0.01755   0.01209  -0.1384  0.7981  0.0251  -5.4141   0.0000   0.0000   0.0000  -0.1679
  -8.900  -0.3399   0.01730   0.01179  -0.1385  0.7968  0.0254  -5.3292   0.0000   0.0000   0.0000  -0.1809
  -8.800  -0.3291   0.01709   0.01152  -0.1386  0.7956  0.0256  -5.2433   0.0000   0.0000   0.0000  -0.1949
  -8.700  -0.3181   0.01691   0.01128  -0.1386  0.7944  0.0258  -5.1562   0.0000   0.0000   0.0000  -0.2100
  -8.600  -0.3073   0.01671   0.01102  -0.1387  0.7933  0.0260  -5.0708   0.0000   0.0000   0.0000  -0.2261
  -8.500  -0.2977   0.01611   0.01038  -0.1388  0.7923  0.0264  -5.0011   0.0000   0.0000   0.0000  -0.2413
  -8.400  -0.2872   0.01585   0.01010  -0.1389  0.7913  0.0267  -4.9160   0.0000   0.0000   0.0000  -0.2593
  -8.300  -0.2763   0.01565   0.00990  -0.1390  0.7900  0.0269  -4.8337   0.0000   0.0000   0.0000  -0.2791
  -8.200  -0.2654   0.01546   0.00971  -0.1391  0.7887  0.0272  -4.7518   0.0000   0.0000   0.0000  -0.3008
  -8.100  -0.2545   0.01528   0.00952  -0.1392  0.7874  0.0274  -4.6711   0.0000   0.0000   0.0000  -0.3243
  -8.000  -0.2435   0.01511   0.00932  -0.1393  0.7862  0.0277  -4.5916   0.0000   0.0000   0.0000  -0.3501
  -7.900  -0.2325   0.01493   0.00911  -0.1393  0.7850  0.0280  -4.5133   0.0000   0.0000   0.0000  -0.3783
  -7.800  -0.2214   0.01475   0.00890  -0.1394  0.7839  0.0283  -4.4360   0.0000   0.0000   0.0000  -0.4095
  -7.700  -0.2104   0.01457   0.00868  -0.1395  0.7829  0.0286  -4.3598   0.0000   0.0000   0.0000  -0.4439
  -7.600  -0.1993   0.01441   0.00847  -0.1395  0.7820  0.0289  -4.2841   0.0000   0.0000   0.0000  -0.4824
  -7.500  -0.1881   0.01424   0.00827  -0.1396  0.7808  0.0292  -4.2088   0.0000   0.0000   0.0000  -0.5255
  -7.400  -0.1770   0.01409   0.00808  -0.1397  0.7795  0.0295  -4.1335   0.0000   0.0000   0.0000  -0.5742
  -7.300  -0.1657   0.01396   0.00792  -0.1397  0.7782  0.0297  -4.0576   0.0000   0.0000   0.0000  -0.6300
  -7.200  -0.1552   0.01358   0.00752  -0.1398  0.7770  0.0301  -3.9916   0.0000   0.0000   0.0000  -0.6892
  -7.100  -0.1444   0.01334   0.00728  -0.1399  0.7758  0.0305  -3.9179   0.0000   0.0000   0.0000  -0.7596
  -7.000  -0.1332   0.01319   0.00712  -0.1400  0.7747  0.0309  -3.8402   0.0000   0.0000   0.0000  -0.8438
  -6.900  -0.1220   0.01307   0.00699  -0.1400  0.7737  0.0313  -3.7621   0.0000   0.0000   0.0000  -0.9445
  -6.800  -0.1107   0.01296   0.00686  -0.1401  0.7727  0.0318  -3.6848   0.0000   0.0000   0.0000  -1.0664
  -6.700  -0.0993   0.01286   0.00673  -0.1402  0.7717  0.0322  -3.6088   0.0000   0.0000   0.0000  -1.2162
  -6.600  -0.0881   0.01274   0.00660  -0.1403  0.7704  0.0327  -3.5346   0.0000   0.0000   0.0000  -1.4036
  -6.500  -0.0767   0.01262   0.00646  -0.1403  0.7691  0.0332  -3.4621   0.0000   0.0000   0.0000  -1.6470
  -6.400  -0.0654   0.01251   0.00632  -0.1404  0.7678  0.0336  -3.3960   0.0000   0.0000   0.0000  -1.9762
  -6.300  -0.0539   0.01242   0.00619  -0.1405  0.7666  0.0339  -3.3297   0.0000   0.0000   0.0000  -2.4478
  -6.200  -0.0432   0.01210   0.00588  -0.1405  0.7654  0.0345  -3.2708   0.0000   0.0000   0.0000  -3.1169
  -6.100  -0.0320   0.01195   0.00572  -0.1406  0.7644  0.0350  -3.2042   0.0000   0.0000   0.0000  -4.2970
  -6.000  -0.0206   0.01183   0.00560  -0.1407  0.7634  0.0355  -3.1367   0.0000   0.0000   0.0000  -6.7971
  -5.900  -0.0092   0.01174   0.00548  -0.1408  0.7624  0.0361  -3.0699   0.0000   0.0000   0.0000  -15.5120
  -5.800   0.0021   0.01164   0.00537  -0.1409  0.7612  0.0367  -3.0043   0.0000   0.0000   0.0000  68.0680
  -5.700   0.0135   0.01154   0.00526  -0.1409  0.7599  0.0373  -2.9398   0.0000   0.0000   0.0000  11.0041
  -5.600   0.0250   0.01145   0.00515  -0.1410  0.7587  0.0379  -2.8757   0.0000   0.0000   0.0000   6.0741
  -5.500   0.0365   0.01137   0.00505  -0.1411  0.7574  0.0384  -2.8119   0.0000   0.0000   0.0000   4.2379
  -5.400   0.0475   0.01114   0.00483  -0.1412  0.7562  0.0392  -2.7513   0.0000   0.0000   0.0000   3.3101
  -5.300   0.0589   0.01104   0.00472  -0.1412  0.7550  0.0399  -2.6862   0.0000   0.0000   0.0000   2.7180
  -5.200   0.0704   0.01096   0.00463  -0.1413  0.7540  0.0407  -2.6212   0.0000   0.0000   0.0000   2.3152
  -5.100   0.0819   0.01089   0.00454  -0.1414  0.7530  0.0416  -2.5573   0.0000   0.0000   0.0000   2.0245
  -5.000   0.0935   0.01083   0.00445  -0.1415  0.7520  0.0424  -2.4944   0.0000   0.0000   0.0000   1.8047
  -4.900   0.1049   0.01076   0.00437  -0.1415  0.7506  0.0431  -2.4328   0.0000   0.0000   0.0000   1.6348
  -4.800   0.1161   0.01057   0.00421  -0.1416  0.7493  0.0442  -2.3773   0.0000   0.0000   0.0000   1.5015
  -4.700   0.1275   0.01048   0.00412  -0.1417  0.7479  0.0450  -2.3203   0.0000   0.0000   0.0000   1.3893
  -4.600   0.1390   0.01040   0.00404  -0.1418  0.7467  0.0460  -2.2638   0.0000   0.0000   0.0000   1.2951
  -4.500   0.1506   0.01034   0.00396  -0.1419  0.7455  0.0471  -2.2081   0.0000   0.0000   0.0000   1.2149
  -4.400   0.1622   0.01028   0.00387  -0.1419  0.7444  0.0480  -2.1528   0.0000   0.0000   0.0000   1.1457
  -4.300   0.1736   0.01014   0.00373  -0.1420  0.7433  0.0492  -2.0992   0.0000   0.0000   0.0000   1.0870
  -4.200   0.1851   0.01008   0.00366  -0.1421  0.7423  0.0505  -2.0434   0.0000   0.0000   0.0000   1.0348
  -4.100   0.1966   0.01001   0.00360  -0.1422  0.7410  0.0518  -1.9885   0.0000   0.0000   0.0000   0.9889
  -4.000   0.2081   0.00996   0.00354  -0.1423  0.7396  0.0532  -1.9344   0.0000   0.0000   0.0000   0.9479
  -3.900   0.2195   0.00984   0.00344  -0.1424  0.7383  0.0548  -1.8815   0.0000   0.0000   0.0000   0.9117
  -3.800   0.2310   0.00977   0.00338  -0.1424  0.7369  0.0565  -1.8275   0.0000   0.0000   0.0000   0.8787
  -3.700   0.2426   0.00972   0.00331  -0.1425  0.7357  0.0583  -1.7743   0.0000   0.0000   0.0000   0.8487
  -3.600   0.2541   0.00963   0.00322  -0.1426  0.7345  0.0602  -1.7222   0.0000   0.0000   0.0000   0.8215
  -3.500   0.2657   0.00956   0.00315  -0.1427  0.7334  0.0623  -1.6695   0.0000   0.0000   0.0000   0.7966
  -3.400   0.2773   0.00953   0.00309  -0.1428  0.7323  0.0647  -1.6173   0.0000   0.0000   0.0000   0.7736
  -3.300   0.2888   0.00943   0.00303  -0.1429  0.7310  0.0674  -1.5660   0.0000   0.0000   0.0000   0.7529
  -3.200   0.3002   0.00938   0.00298  -0.1429  0.7295  0.0705  -1.5150   0.0000   0.0000   0.0000   0.7336
  -3.100   0.3117   0.00929   0.00292  -0.1430  0.7281  0.0738  -1.4676   0.0000   0.0000   0.0000   0.7158
  -2.900   0.3348   0.00916   0.00281  -0.1432  0.7253  0.0822  -1.3751   0.0000   0.0000   0.0000   0.6837
  -2.800   0.3463   0.00909   0.00275  -0.1433  0.7241  0.0874  -1.3292   0.0000   0.0000   0.0000   0.6692
  -2.700   0.3579   0.00903   0.00270  -0.1434  0.7230  0.0936  -1.2835   0.0000   0.0000   0.0000   0.6557
  -2.600   0.3695   0.00898   0.00265  -0.1435  0.7218  0.1007  -1.2380   0.0000   0.0000   0.0000   0.6430
  -2.500   0.3809   0.00890   0.00262  -0.1436  0.7203  0.1087  -1.1933   0.0000   0.0000   0.0000   0.6312
  -2.400   0.3923   0.00883   0.00259  -0.1437  0.7188  0.1176  -1.1488   0.0000   0.0000   0.0000   0.6201
  -2.300   0.4038   0.00876   0.00256  -0.1438  0.7173  0.1272  -1.1045   0.0000   0.0000   0.0000   0.6095
  -2.200   0.4153   0.00870   0.00253  -0.1438  0.7159  0.1377  -1.0605   0.0000   0.0000   0.0000   0.5996
  -2.100   0.4269   0.00864   0.00249  -0.1439  0.7145  0.1487  -1.0168   0.0000   0.0000   0.0000   0.5901
  -2.000   0.4384   0.00858   0.00246  -0.1440  0.7133  0.1604  -0.9736   0.0000   0.0000   0.0000   0.5812
  -1.900   0.4500   0.00853   0.00243  -0.1442  0.7121  0.1725  -0.9336   0.0000   0.0000   0.0000   0.5727
  -1.800   0.4615   0.00848   0.00242  -0.1443  0.7107  0.1846  -0.8942   0.0000   0.0000   0.0000   0.5646
  -1.700   0.4729   0.00842   0.00241  -0.1443  0.7091  0.1967  -0.8554   0.0000   0.0000   0.0000   0.5570
  -1.600   0.4843   0.00836   0.00239  -0.1444  0.7075  0.2097  -0.8258   0.0000   0.0000   0.0000   0.5497
  -1.500   0.4958   0.00830   0.00237  -0.1445  0.7059  0.2239  -0.8332   0.0000   0.0000   0.0000   0.5428
  -1.400   0.5073   0.00825   0.00235  -0.1446  0.7045  0.2389  -0.8408   0.0000   0.0000   0.0000   0.5361
  -1.300   0.5188   0.00819   0.00233  -0.1447  0.7031  0.2545  -0.8485   0.0000   0.0000   0.0000   0.5298
  -1.200   0.5304   0.00815   0.00231  -0.1448  0.7018  0.2709  -0.8561   0.0000   0.0000   0.0000   0.5237
  -1.100   0.5418   0.00809   0.00231  -0.1449  0.7003  0.2880  -0.8637   0.0000   0.0000   0.0000   0.5179
  -0.900   0.5646   0.00796   0.00231  -0.1451  0.6969  0.3281  -0.8788   0.0000   0.0000   0.0000   0.5070
  -0.800   0.5760   0.00790   0.00230  -0.1452  0.6953  0.3495  -0.8868   0.0000   0.0000   0.0000   0.5019
  -0.700   0.5874   0.00784   0.00230  -0.1453  0.6938  0.3719  -0.8948   0.0000   0.0000   0.0000   0.4970
  -0.600   0.5989   0.00778   0.00229  -0.1454  0.6924  0.3960  -0.9029   0.0000   0.0000   0.0000   0.4922
  -0.500   0.6104   0.00773   0.00229  -0.1455  0.6911  0.4214  -0.9110   0.0000   0.0000   0.0000   0.4876
  -0.400   0.6217   0.00766   0.00230  -0.1456  0.6893  0.4469  -0.9189   0.0000   0.0000   0.0000   0.4832
  -0.300   0.6330   0.00759   0.00231  -0.1457  0.6875  0.4738  -0.9270   0.0000   0.0000   0.0000   0.4790
  -0.200   0.6443   0.00753   0.00233  -0.1457  0.6857  0.5013  -0.9352   0.0000   0.0000   0.0000   0.4749
  -0.100   0.6556   0.00747   0.00234  -0.1458  0.6841  0.5291  -0.9434   0.0000   0.0000   0.0000   0.4709
   0.000   0.6669   0.00742   0.00234  -0.1458  0.6825  0.5558  -0.9518   0.0000   0.0000   0.0000   0.4671
   0.100   0.6782   0.00738   0.00235  -0.1459  0.6811  0.5817  -0.9605   0.0000   0.0000   0.0000   0.4633
   0.200   0.6894   0.00733   0.00237  -0.1459  0.6793  0.6070  -0.9694   0.0000   0.0000   0.0000   0.4597
   0.300   0.7005   0.00728   0.00240  -0.1459  0.6774  0.6323  -0.9781   0.0000   0.0000   0.0000   0.4562
   0.400   0.7117   0.00724   0.00242  -0.1459  0.6754  0.6575  -0.9870   0.0000   0.0000   0.0000   0.4528
   0.500   0.7228   0.00720   0.00244  -0.1459  0.6736  0.6803  -0.9958   0.0000   0.0000   0.0000   0.4494
   0.600   0.7339   0.00718   0.00246  -0.1458  0.6719  0.7009  -1.0047   0.0000   0.0000   0.0000   0.4462
   0.700   0.7450   0.00717   0.00247  -0.1458  0.6704  0.7199  -1.0137   0.0000   0.0000   0.0000   0.4430
   0.800   0.7560   0.00714   0.00250  -0.1457  0.6684  0.7373  -1.0227   0.0000   0.0000   0.0000   0.4400
   0.900   0.7669   0.00712   0.00252  -0.1457  0.6663  0.7544  -1.0320   0.0000   0.0000   0.0000   0.4370
   1.000   0.7778   0.00710   0.00254  -0.1456  0.6643  0.7708  -1.0412   0.0000   0.0000   0.0000   0.4341
   1.100   0.7887   0.00708   0.00256  -0.1455  0.6625  0.7870  -1.0504   0.0000   0.0000   0.0000   0.4312
   1.200   0.7995   0.00707   0.00257  -0.1454  0.6607  0.8025  -1.0598   0.0000   0.0000   0.0000   0.4285
   1.300   0.8101   0.00706   0.00259  -0.1452  0.6590  0.8184  -1.0695   0.0000   0.0000   0.0000   0.4257
   1.400   0.8206   0.00703   0.00261  -0.1450  0.6567  0.8346  -1.0793   0.0000   0.0000   0.0000   0.4231
   1.500   0.8308   0.00701   0.00263  -0.1448  0.6544  0.8512  -1.0891   0.0000   0.0000   0.0000   0.4205
   1.600   0.8407   0.00698   0.00265  -0.1445  0.6523  0.8687  -1.0986   0.0000   0.0000   0.0000   0.4179
   1.700   0.8502   0.00696   0.00266  -0.1440  0.6504  0.8892  -1.1079   0.0000   0.0000   0.0000   0.4153
   1.800   0.8592   0.00693   0.00266  -0.1434  0.6485  0.9135  -1.1169   0.0000   0.0000   0.0000   0.4127
   1.900   0.8696   0.00686   0.00266  -0.1432  0.6461  0.9476  -1.1273   0.0000   0.0000   0.0000   0.4103
   2.000   0.8860   0.00683   0.00264  -0.1443  0.6436  1.0000  -1.1415   0.0000   0.0000   0.0000   0.4084
   2.100   0.8974   0.00686   0.00265  -0.1444  0.6414  1.0000  -1.1525   0.0000   0.0000   0.0000   0.4063
   2.200   0.9088   0.00690   0.00266  -0.1444  0.6394  1.0000  -1.1636   0.0000   0.0000   0.0000   0.4042
   2.300   0.9202   0.00694   0.00268  -0.1445  0.6371  1.0000  -1.1747   0.0000   0.0000   0.0000   0.4022
   2.400   0.9315   0.00696   0.00270  -0.1446  0.6345  1.0000  -1.1864   0.0000   0.0000   0.0000   0.4002
   2.500   0.9429   0.00699   0.00272  -0.1446  0.6320  1.0000  -1.1983   0.0000   0.0000   0.0000   0.3983
   2.600   0.9541   0.00703   0.00274  -0.1447  0.6297  1.0000  -1.2103   0.0000   0.0000   0.0000   0.3964
   2.700   0.9653   0.00707   0.00276  -0.1447  0.6275  1.0000  -1.2223   0.0000   0.0000   0.0000   0.3945
   2.800   0.9766   0.00710   0.00279  -0.1448  0.6247  1.0000  -1.2344   0.0000   0.0000   0.0000   0.3927
   2.900   0.9878   0.00713   0.00281  -0.1448  0.6219  1.0000  -1.2464   0.0000   0.0000   0.0000   0.3909
   3.000   0.9989   0.00717   0.00283  -0.1448  0.6193  1.0000  -1.2587   0.0000   0.0000   0.0000   0.3892
   3.100   1.0100   0.00722   0.00285  -0.1448  0.6170  1.0000  -1.2714   0.0000   0.0000   0.0000   0.3875
   3.200   1.0212   0.00725   0.00289  -0.1449  0.6140  1.0000  -1.2842   0.0000   0.0000   0.0000   0.3858
   3.300   1.0324   0.00728   0.00292  -0.1449  0.6111  1.0000  -1.2970   0.0000   0.0000   0.0000   0.3842
   3.400   1.0433   0.00733   0.00295  -0.1449  0.6083  1.0000  -1.3100   0.0000   0.0000   0.0000   0.3826
   3.500   1.0543   0.00738   0.00298  -0.1449  0.6057  1.0000  -1.3231   0.0000   0.0000   0.0000   0.3810
   3.600   1.0654   0.00741   0.00302  -0.1450  0.6025  1.0000  -1.3367   0.0000   0.0000   0.0000   0.3795
   3.700   1.0764   0.00746   0.00305  -0.1449  0.5993  1.0000  -1.3503   0.0000   0.0000   0.0000   0.3779
   3.800   1.0872   0.00752   0.00308  -0.1449  0.5964  1.0000  -1.3642   0.0000   0.0000   0.0000   0.3764
   3.900   1.0982   0.00756   0.00312  -0.1449  0.5932  1.0000  -1.3790   0.0000   0.0000   0.0000   0.3750
   4.000   1.1091   0.00760   0.00316  -0.1449  0.5898  1.0000  -1.3939   0.0000   0.0000   0.0000   0.3735
   4.100   1.1198   0.00766   0.00321  -0.1449  0.5865  1.0000  -1.4091   0.0000   0.0000   0.0000   0.3721
   4.200   1.1305   0.00772   0.00325  -0.1448  0.5832  1.0000  -1.4244   0.0000   0.0000   0.0000   0.3707
   4.300   1.1414   0.00776   0.00330  -0.1448  0.5794  1.0000  -1.4401   0.0000   0.0000   0.0000   0.3693
   4.400   1.1519   0.00783   0.00334  -0.1447  0.5757  1.0000  -1.4558   0.0000   0.0000   0.0000   0.3680
   4.500   1.1625   0.00789   0.00339  -0.1447  0.5721  1.0000  -1.4716   0.0000   0.0000   0.0000   0.3666
   4.600   1.1732   0.00794   0.00344  -0.1446  0.5681  1.0000  -1.4879   0.0000   0.0000   0.0000   0.3653
   4.700   1.1836   0.00802   0.00349  -0.1445  0.5643  1.0000  -1.5040   0.0000   0.0000   0.0000   0.3640
   4.800   1.1942   0.00808   0.00354  -0.1445  0.5604  1.0000  -1.5204   0.0000   0.0000   0.0000   0.3627
   4.900   1.2047   0.00814   0.00360  -0.1444  0.5562  1.0000  -1.5370   0.0000   0.0000   0.0000   0.3615
   5.100   1.2254   0.00829   0.00372  -0.1442  0.5481  1.0000  -1.5711   0.0000   0.0000   0.0000   0.3590
   5.200   1.2356   0.00837   0.00379  -0.1441  0.5437  1.0000  -1.5896   0.0000   0.0000   0.0000   0.3578
   5.300   1.2458   0.00845   0.00385  -0.1439  0.5396  1.0000  -1.6085   0.0000   0.0000   0.0000   0.3566
   5.400   1.2561   0.00852   0.00392  -0.1438  0.5349  1.0000  -1.6280   0.0000   0.0000   0.0000   0.3554
   5.600   1.2761   0.00869   0.00406  -0.1435  0.5256  1.0000  -1.6676   0.0000   0.0000   0.0000   0.3531
   5.700   1.2858   0.00880   0.00415  -0.1433  0.5206  1.0000  -1.6872   0.0000   0.0000   0.0000   0.3520
   5.800   1.2957   0.00888   0.00422  -0.1432  0.5154  1.0000  -1.7078   0.0000   0.0000   0.0000   0.3508
   5.900   1.3052   0.00899   0.00431  -0.1429  0.5100  1.0000  -1.7280   0.0000   0.0000   0.0000   0.3497
   6.000   1.3149   0.00909   0.00439  -0.1427  0.5045  1.0000  -1.7486   0.0000   0.0000   0.0000   0.3486
   6.100   1.3242   0.00921   0.00449  -0.1425  0.4990  1.0000  -1.7695   0.0000   0.0000   0.0000   0.3475
   6.200   1.3338   0.00931   0.00458  -0.1423  0.4934  1.0000  -1.7913   0.0000   0.0000   0.0000   0.3464
   6.300   1.3429   0.00944   0.00468  -0.1420  0.4878  1.0000  -1.8166   0.0000   0.0000   0.0000   0.3453
   6.400   1.3524   0.00955   0.00477  -0.1417  0.4822  1.0000  -1.8424   0.0000   0.0000   0.0000   0.3442
   6.500   1.3612   0.00969   0.00489  -0.1414  0.4766  1.0000  -1.8676   0.0000   0.0000   0.0000   0.3432
   6.600   1.3705   0.00980   0.00499  -0.1411  0.4709  1.0000  -1.8946   0.0000   0.0000   0.0000   0.3421
   6.800   1.3882   0.01007   0.00521  -0.1405  0.4592  1.0000  -1.9521   0.0000   0.0000   0.0000   0.3400
   6.900   1.3965   0.01022   0.00534  -0.1400  0.4533  1.0000  -1.9816   0.0000   0.0000   0.0000   0.3390
   7.000   1.4052   0.01036   0.00546  -0.1397  0.4469  1.0000  -2.0120   0.0000   0.0000   0.0000   0.3379
   7.100   1.4133   0.01052   0.00559  -0.1392  0.4405  1.0000  -2.0416   0.0000   0.0000   0.0000   0.3369
   7.200   1.4210   0.01070   0.00574  -0.1387  0.4334  1.0000  -2.0707   0.0000   0.0000   0.0000   0.3358
   7.300   1.4290   0.01086   0.00588  -0.1382  0.4262  1.0000  -2.1009   0.0000   0.0000   0.0000   0.3348
   7.400   1.4363   0.01105   0.00604  -0.1377  0.4192  1.0000  -2.1316   0.0000   0.0000   0.0000   0.3338
   7.500   1.4435   0.01124   0.00620  -0.1371  0.4120  1.0000  -2.1630   0.0000   0.0000   0.0000   0.3327
   7.600   1.4508   0.01141   0.00635  -0.1365  0.4052  1.0000  -2.1948   0.0000   0.0000   0.0000   0.3317
   7.700   1.4569   0.01160   0.00651  -0.1357  0.3990  1.0000  -2.2247   0.0000   0.0000   0.0000   0.3306
   7.800   1.4637   0.01178   0.00667  -0.1350  0.3924  1.0000  -2.2560   0.0000   0.0000   0.0000   0.3295
   7.900   1.4702   0.01198   0.00685  -0.1343  0.3862  1.0000  -2.2867   0.0000   0.0000   0.0000   0.3285
   8.000   1.4761   0.01221   0.00704  -0.1335  0.3796  1.0000  -2.3180   0.0000   0.0000   0.0000   0.3274
   8.100   1.4826   0.01241   0.00723  -0.1328  0.3728  1.0000  -2.3506   0.0000   0.0000   0.0000   0.3264
   8.200   1.4883   0.01266   0.00745  -0.1321  0.3664  1.0000  -2.3819   0.0000   0.0000   0.0000   0.3254
   8.300   1.4942   0.01289   0.00766  -0.1313  0.3597  1.0000  -2.4136   0.0000   0.0000   0.0000   0.3244
   8.400   1.5002   0.01313   0.00788  -0.1306  0.3533  1.0000  -2.4456   0.0000   0.0000   0.0000   0.3234
   8.500   1.5054   0.01341   0.00813  -0.1298  0.3471  1.0000  -2.4761   0.0000   0.0000   0.0000   0.3224
   8.600   1.5116   0.01365   0.00835  -0.1291  0.3407  1.0000  -2.5087   0.0000   0.0000   0.0000   0.3214
   8.700   1.5170   0.01393   0.00861  -0.1284  0.3347  1.0000  -2.5450   0.0000   0.0000   0.0000   0.3204
   8.800   1.5223   0.01423   0.00888  -0.1276  0.3283  1.0000  -2.5861   0.0000   0.0000   0.0000   0.3195
   8.900   1.5279   0.01451   0.00914  -0.1269  0.3221  1.0000  -2.6281   0.0000   0.0000   0.0000   0.3185
   9.000   1.5327   0.01484   0.00945  -0.1261  0.3161  1.0000  -2.6681   0.0000   0.0000   0.0000   0.3176
   9.100   1.5383   0.01514   0.00973  -0.1254  0.3096  1.0000  -2.7104   0.0000   0.0000   0.0000   0.3167
   9.200   1.5432   0.01547   0.01004  -0.1247  0.3035  1.0000  -2.7513   0.0000   0.0000   0.0000   0.3157
   9.300   1.5478   0.01584   0.01038  -0.1239  0.2972  1.0000  -2.7915   0.0000   0.0000   0.0000   0.3148
   9.400   1.5531   0.01616   0.01069  -0.1232  0.2910  1.0000  -2.8336   0.0000   0.0000   0.0000   0.3139
   9.500   1.5576   0.01654   0.01104  -0.1225  0.2851  1.0000  -2.8738   0.0000   0.0000   0.0000   0.3130
   9.600   1.5625   0.01691   0.01138  -0.1218  0.2789  1.0000  -2.9153   0.0000   0.0000   0.0000   0.3122
   9.700   1.5672   0.01728   0.01174  -0.1211  0.2730  1.0000  -2.9567   0.0000   0.0000   0.0000   0.3113
   9.900   1.5762   0.01807   0.01248  -0.1196  0.2612  1.0000  -3.0386   0.0000   0.0000   0.0000   0.3096
  10.000   1.5803   0.01850   0.01289  -0.1189  0.2556  1.0000  -3.0787   0.0000   0.0000   0.0000   0.3087
  10.100   1.5845   0.01893   0.01330  -0.1181  0.2495  1.0000  -3.1191   0.0000   0.0000   0.0000   0.3079
  10.200   1.5888   0.01935   0.01371  -0.1174  0.2434  1.0000  -3.1600   0.0000   0.0000   0.0000   0.3071
  10.300   1.5922   0.01983   0.01416  -0.1166  0.2375  1.0000  -3.1987   0.0000   0.0000   0.0000   0.3062
  10.400   1.5961   0.02029   0.01459  -0.1159  0.2313  1.0000  -3.2389   0.0000   0.0000   0.0000   0.3054
  10.500   1.5999   0.02076   0.01504  -0.1152  0.2253  1.0000  -3.2789   0.0000   0.0000   0.0000   0.3046
  10.600   1.6029   0.02128   0.01553  -0.1144  0.2194  1.0000  -3.3186   0.0000   0.0000   0.0000   0.3038
  10.700   1.6064   0.02177   0.01600  -0.1136  0.2131  1.0000  -3.3607   0.0000   0.0000   0.0000   0.3030
  10.800   1.6097   0.02229   0.01649  -0.1129  0.2071  1.0000  -3.4022   0.0000   0.0000   0.0000   0.3022
  10.900   1.6124   0.02284   0.01702  -0.1121  0.2012  1.0000  -3.4420   0.0000   0.0000   0.0000   0.3014
  11.000   1.6154   0.02338   0.01754  -0.1113  0.1951  1.0000  -3.4828   0.0000   0.0000   0.0000   0.3006
  11.100   1.6184   0.02392   0.01806  -0.1106  0.1893  1.0000  -3.5240   0.0000   0.0000   0.0000   0.2998
  11.200   1.6209   0.02451   0.01861  -0.1098  0.1839  1.0000  -3.5636   0.0000   0.0000   0.0000   0.2990
  11.300   1.6238   0.02507   0.01915  -0.1091  0.1783  1.0000  -3.6046   0.0000   0.0000   0.0000   0.2982
  11.400   1.6267   0.02563   0.01970  -0.1083  0.1731  1.0000  -3.6458   0.0000   0.0000   0.0000   0.2975
  11.500   1.6289   0.02624   0.02028  -0.1075  0.1681  1.0000  -3.6851   0.0000   0.0000   0.0000   0.2967
  11.600   1.6319   0.02680   0.02083  -0.1068  0.1630  1.0000  -3.7268   0.0000   0.0000   0.0000   0.2959
  11.700   1.6344   0.02739   0.02141  -0.1061  0.1584  1.0000  -3.7670   0.0000   0.0000   0.0000   0.2952
  11.800   1.6367   0.02801   0.02200  -0.1054  0.1537  1.0000  -3.8070   0.0000   0.0000   0.0000   0.2944
  11.900   1.6394   0.02860   0.02259  -0.1047  0.1492  1.0000  -3.8482   0.0000   0.0000   0.0000   0.2937
  12.100   1.6442   0.02985   0.02381  -0.1032  0.1404  1.0000  -3.9288   0.0000   0.0000   0.0000   0.2923
  12.200   1.6461   0.03051   0.02445  -0.1025  0.1364  1.0000  -3.9679   0.0000   0.0000   0.0000   0.2915
  12.300   1.6486   0.03113   0.02507  -0.1018  0.1322  1.0000  -4.0091   0.0000   0.0000   0.0000   0.2908
  12.400   1.6506   0.03179   0.02572  -0.1011  0.1284  1.0000  -4.0486   0.0000   0.0000   0.0000   0.2901
  12.500   1.6528   0.03245   0.02636  -0.1005  0.1244  1.0000  -4.0888   0.0000   0.0000   0.0000   0.2894
  12.600   1.6548   0.03313   0.02703  -0.0998  0.1207  1.0000  -4.1286   0.0000   0.0000   0.0000   0.2888
  12.700   1.6568   0.03381   0.02771  -0.0991  0.1169  1.0000  -4.1683   0.0000   0.0000   0.0000   0.2881
  12.800   1.6588   0.03451   0.02840  -0.0985  0.1134  1.0000  -4.2083   0.0000   0.0000   0.0000   0.2874
  12.900   1.6606   0.03523   0.02911  -0.0978  0.1098  1.0000  -4.2476   0.0000   0.0000   0.0000   0.2867
  13.000   1.6627   0.03594   0.02981  -0.0972  0.1065  1.0000  -4.2879   0.0000   0.0000   0.0000   0.2861
  13.100   1.6643   0.03668   0.03055  -0.0966  0.1032  1.0000  -4.3269   0.0000   0.0000   0.0000   0.2854
  13.200   1.6663   0.03741   0.03128  -0.0960  0.1001  1.0000  -4.3671   0.0000   0.0000   0.0000   0.2848
  13.300   1.6679   0.03817   0.03204  -0.0954  0.0970  1.0000  -4.4062   0.0000   0.0000   0.0000   0.2842
  13.400   1.6696   0.03894   0.03280  -0.0948  0.0941  1.0000  -4.4454   0.0000   0.0000   0.0000   0.2835
  13.500   1.6714   0.03969   0.03355  -0.0942  0.0911  1.0000  -4.4852   0.0000   0.0000   0.0000   0.2829
  13.600   1.6725   0.04052   0.03437  -0.0936  0.0885  1.0000  -4.5244   0.0000   0.0000   0.0000   0.2823
  13.700   1.6745   0.04126   0.03512  -0.0931  0.0856  1.0000  -4.5680   0.0000   0.0000   0.0000   0.2817
  13.900   1.6774   0.04290   0.03676  -0.0920  0.0805  1.0000  -4.6510   0.0000   0.0000   0.0000   0.2805
  14.000   1.6785   0.04376   0.03762  -0.0915  0.0780  1.0000  -4.6927   0.0000   0.0000   0.0000   0.2800
  14.100   1.6800   0.04460   0.03846  -0.0910  0.0757  1.0000  -4.7400   0.0000   0.0000   0.0000   0.2794
  14.200   1.6815   0.04543   0.03930  -0.0905  0.0734  1.0000  -4.7877   0.0000   0.0000   0.0000   0.2788
  14.300   1.6819   0.04638   0.04024  -0.0899  0.0713  1.0000  -4.8311   0.0000   0.0000   0.0000   0.2783
  14.400   1.6840   0.04717   0.04105  -0.0895  0.0693  1.0000  -4.8814   0.0000   0.0000   0.0000   0.2777
  14.500   1.6851   0.04806   0.04195  -0.0890  0.0673  1.0000  -4.9276   0.0000   0.0000   0.0000   0.2772
  14.600   1.6855   0.04902   0.04291  -0.0885  0.0656  1.0000  -4.9712   0.0000   0.0000   0.0000   0.2767
  14.700   1.6874   0.04985   0.04375  -0.0881  0.0638  1.0000  -5.0209   0.0000   0.0000   0.0000   0.2761
  14.800   1.6884   0.05076   0.04467  -0.0877  0.0621  1.0000  -5.0672   0.0000   0.0000   0.0000   0.2756
  15.000   1.6903   0.05264   0.04657  -0.0868  0.0592  1.0000  -5.1593   0.0000   0.0000   0.0000   0.2746
  15.100   1.6915   0.05356   0.04751  -0.0864  0.0577  1.0000  -5.2069   0.0000   0.0000   0.0000   0.2741
  15.200   1.6918   0.05459   0.04854  -0.0860  0.0564  1.0000  -5.2505   0.0000   0.0000   0.0000   0.2736
  15.300   1.6922   0.05561   0.04957  -0.0856  0.0552  1.0000  -5.2943   0.0000   0.0000   0.0000   0.2732
  15.400   1.6939   0.05651   0.05050  -0.0853  0.0539  1.0000  -5.3441   0.0000   0.0000   0.0000   0.2727
  15.500   1.6946   0.05750   0.05151  -0.0850  0.0526  1.0000  -5.3899   0.0000   0.0000   0.0000   0.2722
  15.600   1.6948   0.05857   0.05258  -0.0846  0.0515  1.0000  -5.4332   0.0000   0.0000   0.0000   0.2718
  15.700   1.6943   0.05971   0.05374  -0.0843  0.0505  1.0000  -5.4734   0.0000   0.0000   0.0000   0.2713
  15.800   1.6961   0.06062   0.05468  -0.0840  0.0494  1.0000  -5.5238   0.0000   0.0000   0.0000   0.2709
  15.900   1.6969   0.06162   0.05571  -0.0837  0.0483  1.0000  -5.5700   0.0000   0.0000   0.0000   0.2705
  16.000   1.6968   0.06273   0.05683  -0.0834  0.0473  1.0000  -5.6124   0.0000   0.0000   0.0000   0.2700
  16.100   1.6962   0.06391   0.05802  -0.0830  0.0463  1.0000  -5.6523   0.0000   0.0000   0.0000   0.2696
  16.200   1.6962   0.06503   0.05916  -0.0828  0.0455  1.0000  -5.6948   0.0000   0.0000   0.0000   0.2692
  16.300   1.6973   0.06603   0.06019  -0.0825  0.0445  1.0000  -5.7428   0.0000   0.0000   0.0000   0.2688
  16.400   1.6977   0.06712   0.06130  -0.0823  0.0435  1.0000  -5.7874   0.0000   0.0000   0.0000   0.2684
  16.500   1.6971   0.06832   0.06253  -0.0820  0.0426  1.0000  -5.8280   0.0000   0.0000   0.0000   0.2681
  16.600   1.6960   0.06960   0.06382  -0.0818  0.0418  1.0000  -5.8655   0.0000   0.0000   0.0000   0.2677
  16.700   1.6957   0.07080   0.06504  -0.0816  0.0410  1.0000  -5.9069   0.0000   0.0000   0.0000   0.2673
  16.800   1.6965   0.07187   0.06614  -0.0814  0.0401  1.0000  -5.9532   0.0000   0.0000   0.0000   0.2670
  16.900   1.6965   0.07303   0.06733  -0.0812  0.0393  1.0000  -5.9966   0.0000   0.0000   0.0000   0.2666
  17.000   1.6957   0.07432   0.06863  -0.0811  0.0385  1.0000  -6.0354   0.0000   0.0000   0.0000   0.2663
  17.100   1.6942   0.07567   0.07000  -0.0809  0.0377  1.0000  -6.0713   0.0000   0.0000   0.0000   0.2660
  17.200   1.6923   0.07711   0.07146  -0.0808  0.0370  1.0000  -6.1043   0.0000   0.0000   0.0000   0.2657
  17.300   1.6930   0.07821   0.07260  -0.0807  0.0363  1.0000  -6.1506   0.0000   0.0000   0.0000   0.2654
  17.400   1.6928   0.07942   0.07383  -0.0805  0.0356  1.0000  -6.1926   0.0000   0.0000   0.0000   0.2651
  17.500   1.6917   0.08074   0.07519  -0.0804  0.0349  1.0000  -6.2301   0.0000   0.0000   0.0000   0.2648
  17.600   1.6902   0.08213   0.07659  -0.0804  0.0342  1.0000  -6.2654   0.0000   0.0000   0.0000   0.2645
  17.700   1.6877   0.08365   0.07813  -0.0803  0.0336  1.0000  -6.2956   0.0000   0.0000   0.0000   0.2643
  17.800   1.6850   0.08522   0.07972  -0.0802  0.0330  1.0000  -6.3242   0.0000   0.0000   0.0000   0.2641
  17.900   1.6852   0.08642   0.08096  -0.0802  0.0324  1.0000  -6.3677   0.0000   0.0000   0.0000   0.2638
  18.000   1.6847   0.08772   0.08230  -0.0802  0.0318  1.0000  -6.4073   0.0000   0.0000   0.0000   0.2636
  18.100   1.6835   0.08911   0.08372  -0.0802  0.0312  1.0000  -6.4438   0.0000   0.0000   0.0000   0.2634
  18.200   1.6816   0.09061   0.08524  -0.0802  0.0306  1.0000  -6.4765   0.0000   0.0000   0.0000   0.2632
  18.300   1.6792   0.09217   0.08682  -0.0803  0.0301  1.0000  -6.5067   0.0000   0.0000   0.0000   0.2630
  18.400   1.6758   0.09388   0.08855  -0.0804  0.0296  1.0000  -6.5311   0.0000   0.0000   0.0000   0.2629
  18.500   1.6731   0.09551   0.09021  -0.0804  0.0292  1.0000  -6.5587   0.0000   0.0000   0.0000   0.2628
  18.600   1.6727   0.09683   0.09157  -0.0805  0.0287  1.0000  -6.5985   0.0000   0.0000   0.0000   0.2626
  18.700   1.6718   0.09821   0.09299  -0.0806  0.0281  1.0000  -6.6357   0.0000   0.0000   0.0000   0.2624
  18.800   1.6702   0.09971   0.09453  -0.0808  0.0277  1.0000  -6.6688   0.0000   0.0000   0.0000   0.2623
  18.900   1.6680   0.10128   0.09612  -0.0809  0.0272  1.0000  -6.6992   0.0000   0.0000   0.0000   0.2622
  19.000   1.6654   0.10290   0.09777  -0.0811  0.0268  1.0000  -6.7270   0.0000   0.0000   0.0000   0.2621
  19.100   1.6622   0.10463   0.09952  -0.0813  0.0265  1.0000  -6.7508   0.0000   0.0000   0.0000   0.2621
  19.200   1.6583   0.10645   0.10137  -0.0816  0.0261  1.0000  -6.7708   0.0000   0.0000   0.0000   0.2621
  19.400   1.6525   0.10987   0.10486  -0.0821  0.0254  1.0000  -6.8196   0.0000   0.0000   0.0000   0.2621
  19.500   1.6511   0.11137   0.10639  -0.0823  0.0251  1.0000  -6.8527   0.0000   0.0000   0.0000   0.2620
  19.600   1.6496   0.11289   0.10795  -0.0826  0.0247  1.0000  -6.8847   0.0000   0.0000   0.0000   0.2619
  19.700   1.6475   0.11450   0.10961  -0.0829  0.0244  1.0000  -6.9135   0.0000   0.0000   0.0000   0.2619
  19.800   1.6453   0.11613   0.11127  -0.0833  0.0241  1.0000  -6.9416   0.0000   0.0000   0.0000   0.2619
  19.900   1.6425   0.11786   0.11303  -0.0837  0.0238  1.0000  -6.9671   0.0000   0.0000   0.0000   0.2620
  20.000   1.6398   0.11960   0.11480  -0.0841  0.0235  1.0000  -6.9939   0.0000   0.0000   0.0000   0.2620


