xflr5 v6.57

 Calculated polar for: reaf

 1 1 Reynolds number fixed          Mach number fixed         

 xtrf =   1.000 (top)        1.000 (bottom)
 Mach =   0.000     Re =     0.820 e 6     Ncrit =   9.000

  alpha     CL        CD       CDp       Cm    Top Xtr Bot Xtr   Cpmin    Chinge    XCp    
 ------- -------- --------- --------- -------- ------- ------- -------- --------- ---------
 -10.000  -0.4578   0.01910   0.01403  -0.1371  0.8035  0.0222  -6.3748   0.0000   0.0000   0.0000  -0.0703
  -9.900  -0.4474   0.01885   0.01371  -0.1372  0.8024  0.0223  -6.2850   0.0000   0.0000   0.0000  -0.0776
  -9.800  -0.4368   0.01863   0.01343  -0.1373  0.8014  0.0224  -6.1938   0.0000   0.0000   0.0000  -0.0854
  -9.700  -0.4285   0.01782   0.01255  -0.1375  0.8002  0.0227  -6.1330   0.0000   0.0000   0.0000  -0.0921
  -9.600  -0.4186   0.01740   0.01211  -0.1376  0.7988  0.0229  -6.0489   0.0000   0.0000   0.0000  -0.1001
  -9.500  -0.4083   0.01711   0.01181  -0.1377  0.7975  0.0231  -5.9577   0.0000   0.0000   0.0000  -0.1089
  -9.400  -0.3977   0.01688   0.01156  -0.1378  0.7962  0.0233  -5.8642   0.0000   0.0000   0.0000  -0.1183
  -9.300  -0.3870   0.01668   0.01134  -0.1379  0.7950  0.0235  -5.7702   0.0000   0.0000   0.0000  -0.1284
  -9.200  -0.3763   0.01648   0.01112  -0.1380  0.7939  0.0237  -5.6767   0.0000   0.0000   0.0000  -0.1390
  -9.100  -0.3655   0.01629   0.01090  -0.1381  0.7928  0.0239  -5.5840   0.0000   0.0000   0.0000  -0.1504
  -9.000  -0.3547   0.01611   0.01068  -0.1382  0.7918  0.0241  -5.4923   0.0000   0.0000   0.0000  -0.1624
  -8.900  -0.3438   0.01592   0.01046  -0.1383  0.7907  0.0243  -5.4014   0.0000   0.0000   0.0000  -0.1753
  -8.800  -0.3329   0.01573   0.01025  -0.1383  0.7894  0.0245  -5.3107   0.0000   0.0000   0.0000  -0.1891
  -8.700  -0.3220   0.01555   0.01003  -0.1384  0.7881  0.0248  -5.2208   0.0000   0.0000   0.0000  -0.2039
  -8.600  -0.3110   0.01537   0.00982  -0.1385  0.7868  0.0251  -5.1315   0.0000   0.0000   0.0000  -0.2198
  -8.500  -0.3000   0.01521   0.00962  -0.1386  0.7856  0.0254  -5.0427   0.0000   0.0000   0.0000  -0.2369
  -8.400  -0.2889   0.01505   0.00942  -0.1387  0.7845  0.0256  -4.9589   0.0000   0.0000   0.0000  -0.2554
  -8.300  -0.2778   0.01491   0.00923  -0.1387  0.7835  0.0258  -4.8774   0.0000   0.0000   0.0000  -0.2755
  -8.200  -0.2665   0.01480   0.00906  -0.1388  0.7825  0.0260  -4.7958   0.0000   0.0000   0.0000  -0.2974
  -8.100  -0.2566   0.01429   0.00852  -0.1389  0.7814  0.0263  -4.7324   0.0000   0.0000   0.0000  -0.3184
  -8.000  -0.2459   0.01402   0.00825  -0.1390  0.7802  0.0266  -4.6552   0.0000   0.0000   0.0000  -0.3431
  -7.900  -0.2350   0.01383   0.00806  -0.1391  0.7789  0.0269  -4.5743   0.0000   0.0000   0.0000  -0.3707
  -7.800  -0.2239   0.01367   0.00789  -0.1392  0.7777  0.0272  -4.4925   0.0000   0.0000   0.0000  -0.4013
  -7.700  -0.2127   0.01353   0.00774  -0.1393  0.7765  0.0274  -4.4112   0.0000   0.0000   0.0000  -0.4353
  -7.600  -0.2015   0.01339   0.00758  -0.1393  0.7754  0.0277  -4.3308   0.0000   0.0000   0.0000  -0.4731
  -7.500  -0.1903   0.01325   0.00742  -0.1394  0.7743  0.0280  -4.2514   0.0000   0.0000   0.0000  -0.5155
  -7.400  -0.1791   0.01312   0.00725  -0.1395  0.7733  0.0284  -4.1730   0.0000   0.0000   0.0000  -0.5632
  -7.300  -0.1679   0.01299   0.00709  -0.1395  0.7723  0.0287  -4.0956   0.0000   0.0000   0.0000  -0.6174
  -7.200  -0.1566   0.01285   0.00693  -0.1396  0.7712  0.0290  -4.0188   0.0000   0.0000   0.0000  -0.6795
  -7.100  -0.1453   0.01273   0.00678  -0.1397  0.7699  0.0293  -3.9422   0.0000   0.0000   0.0000  -0.7516
  -7.000  -0.1340   0.01262   0.00664  -0.1398  0.7687  0.0296  -3.8654   0.0000   0.0000   0.0000  -0.8363
  -6.900  -0.1229   0.01241   0.00642  -0.1398  0.7675  0.0300  -3.7930   0.0000   0.0000   0.0000  -0.9339
  -6.800  -0.1120   0.01216   0.00616  -0.1399  0.7663  0.0305  -3.7208   0.0000   0.0000   0.0000  -1.0485
  -6.700  -0.1008   0.01202   0.00602  -0.1400  0.7651  0.0309  -3.6435   0.0000   0.0000   0.0000  -1.1932
  -6.600  -0.0894   0.01192   0.00591  -0.1401  0.7641  0.0314  -3.5659   0.0000   0.0000   0.0000  -1.3760
  -6.500  -0.0781   0.01183   0.00580  -0.1402  0.7631  0.0318  -3.4933   0.0000   0.0000   0.0000  -1.6127
  -6.400  -0.0667   0.01174   0.00568  -0.1402  0.7621  0.0323  -3.4240   0.0000   0.0000   0.0000  -1.9313
  -6.300  -0.0553   0.01163   0.00556  -0.1403  0.7609  0.0328  -3.3563   0.0000   0.0000   0.0000  -2.3795
  -6.200  -0.0439   0.01152   0.00544  -0.1404  0.7596  0.0332  -3.2894   0.0000   0.0000   0.0000  -3.0624
  -6.100  -0.0324   0.01143   0.00533  -0.1405  0.7584  0.0336  -3.2225   0.0000   0.0000   0.0000  -4.2325
  -6.000  -0.0211   0.01130   0.00518  -0.1405  0.7571  0.0341  -3.1577   0.0000   0.0000   0.0000  -6.6451
  -5.900  -0.0100   0.01108   0.00496  -0.1406  0.7560  0.0347  -3.0948   0.0000   0.0000   0.0000  -14.2700
  -5.800   0.0014   0.01097   0.00484  -0.1407  0.7549  0.0353  -3.0277   0.0000   0.0000   0.0000  107.1781
  -5.700   0.0128   0.01088   0.00474  -0.1408  0.7539  0.0358  -2.9604   0.0000   0.0000   0.0000  11.5966
  -5.600   0.0243   0.01080   0.00464  -0.1409  0.7529  0.0364  -2.8940   0.0000   0.0000   0.0000   6.2315
  -5.500   0.0358   0.01072   0.00455  -0.1410  0.7518  0.0371  -2.8284   0.0000   0.0000   0.0000   4.3094
  -5.400   0.0473   0.01064   0.00446  -0.1410  0.7505  0.0377  -2.7638   0.0000   0.0000   0.0000   3.3233
  -5.300   0.0588   0.01058   0.00438  -0.1411  0.7492  0.0382  -2.6991   0.0000   0.0000   0.0000   2.7197
  -5.200   0.0700   0.01040   0.00420  -0.1412  0.7479  0.0391  -2.6378   0.0000   0.0000   0.0000   2.3236
  -5.100   0.0815   0.01030   0.00410  -0.1413  0.7467  0.0399  -2.5732   0.0000   0.0000   0.0000   2.0328
  -5.000   0.0930   0.01023   0.00403  -0.1414  0.7455  0.0407  -2.5085   0.0000   0.0000   0.0000   1.8120
  -4.900   0.1045   0.01016   0.00395  -0.1414  0.7444  0.0416  -2.4449   0.0000   0.0000   0.0000   1.6394
  -4.800   0.1161   0.01011   0.00387  -0.1415  0.7434  0.0425  -2.3872   0.0000   0.0000   0.0000   1.5008
  -4.700   0.1277   0.01005   0.00378  -0.1416  0.7424  0.0432  -2.3307   0.0000   0.0000   0.0000   1.3872
  -4.600   0.1390   0.00990   0.00365  -0.1417  0.7411  0.0443  -2.2757   0.0000   0.0000   0.0000   1.2945
  -4.500   0.1505   0.00982   0.00358  -0.1418  0.7398  0.0453  -2.2187   0.0000   0.0000   0.0000   1.2149
  -4.400   0.1620   0.00975   0.00351  -0.1419  0.7384  0.0463  -2.1622   0.0000   0.0000   0.0000   1.1462
  -4.300   0.1736   0.00969   0.00344  -0.1419  0.7371  0.0474  -2.1065   0.0000   0.0000   0.0000   1.0864
  -4.200   0.1851   0.00962   0.00335  -0.1420  0.7359  0.0484  -2.0518   0.0000   0.0000   0.0000   1.0342
  -4.100   0.1966   0.00951   0.00326  -0.1421  0.7347  0.0498  -1.9971   0.0000   0.0000   0.0000   0.9884
  -4.000   0.2081   0.00946   0.00319  -0.1422  0.7336  0.0512  -1.9417   0.0000   0.0000   0.0000   0.9474
  -3.900   0.2197   0.00942   0.00313  -0.1423  0.7326  0.0526  -1.8869   0.0000   0.0000   0.0000   0.9105
  -3.800   0.2313   0.00935   0.00306  -0.1424  0.7314  0.0542  -1.8335   0.0000   0.0000   0.0000   0.8776
  -3.700   0.2428   0.00926   0.00299  -0.1425  0.7300  0.0560  -1.7798   0.0000   0.0000   0.0000   0.8479
  -3.600   0.2543   0.00921   0.00294  -0.1425  0.7286  0.0578  -1.7265   0.0000   0.0000   0.0000   0.8207
  -3.500   0.2659   0.00914   0.00287  -0.1426  0.7272  0.0598  -1.6742   0.0000   0.0000   0.0000   0.7959
  -3.400   0.2774   0.00906   0.00281  -0.1427  0.7259  0.0620  -1.6218   0.0000   0.0000   0.0000   0.7732
  -3.300   0.2890   0.00902   0.00276  -0.1428  0.7247  0.0645  -1.5697   0.0000   0.0000   0.0000   0.7522
  -3.200   0.3005   0.00894   0.00269  -0.1429  0.7235  0.0674  -1.5182   0.0000   0.0000   0.0000   0.7329
  -3.100   0.3121   0.00890   0.00264  -0.1430  0.7224  0.0707  -1.4700   0.0000   0.0000   0.0000   0.7149
  -3.000   0.3236   0.00883   0.00259  -0.1431  0.7211  0.0744  -1.4233   0.0000   0.0000   0.0000   0.6984
  -2.900   0.3352   0.00877   0.00255  -0.1431  0.7196  0.0786  -1.3770   0.0000   0.0000   0.0000   0.6830
  -2.800   0.3467   0.00870   0.00250  -0.1432  0.7181  0.0834  -1.3308   0.0000   0.0000   0.0000   0.6686
  -2.700   0.3582   0.00864   0.00246  -0.1433  0.7167  0.0891  -1.2850   0.0000   0.0000   0.0000   0.6551
  -2.600   0.3697   0.00857   0.00242  -0.1434  0.7153  0.0957  -1.2394   0.0000   0.0000   0.0000   0.6425
  -2.500   0.3813   0.00851   0.00238  -0.1435  0.7141  0.1032  -1.1942   0.0000   0.0000   0.0000   0.6306
  -2.400   0.3928   0.00845   0.00234  -0.1436  0.7129  0.1115  -1.1493   0.0000   0.0000   0.0000   0.6194
  -2.300   0.4044   0.00841   0.00230  -0.1437  0.7117  0.1205  -1.1046   0.0000   0.0000   0.0000   0.6088
  -2.200   0.4159   0.00835   0.00228  -0.1438  0.7102  0.1299  -1.0606   0.0000   0.0000   0.0000   0.5989
  -2.100   0.4274   0.00828   0.00226  -0.1439  0.7087  0.1400  -1.0169   0.0000   0.0000   0.0000   0.5895
  -2.000   0.4389   0.00822   0.00223  -0.1440  0.7072  0.1509  -0.9735   0.0000   0.0000   0.0000   0.5806
  -1.900   0.4504   0.00816   0.00221  -0.1441  0.7057  0.1624  -0.9337   0.0000   0.0000   0.0000   0.5722
  -1.800   0.4619   0.00811   0.00219  -0.1442  0.7043  0.1741  -0.8941   0.0000   0.0000   0.0000   0.5641
  -1.700   0.4735   0.00807   0.00216  -0.1443  0.7029  0.1857  -0.8549   0.0000   0.0000   0.0000   0.5565
  -1.600   0.4850   0.00803   0.00214  -0.1444  0.7017  0.1975  -0.8267   0.0000   0.0000   0.0000   0.5492
  -1.500   0.4965   0.00797   0.00213  -0.1445  0.7002  0.2101  -0.8342   0.0000   0.0000   0.0000   0.5422
  -1.400   0.5080   0.00791   0.00212  -0.1446  0.6985  0.2241  -0.8417   0.0000   0.0000   0.0000   0.5356
  -1.300   0.5195   0.00786   0.00211  -0.1447  0.6969  0.2388  -0.8493   0.0000   0.0000   0.0000   0.5293
  -1.200   0.5309   0.00780   0.00210  -0.1448  0.6953  0.2540  -0.8569   0.0000   0.0000   0.0000   0.5232
  -1.100   0.5424   0.00775   0.00208  -0.1449  0.6938  0.2699  -0.8645   0.0000   0.0000   0.0000   0.5174
  -1.000   0.5539   0.00770   0.00207  -0.1450  0.6924  0.2866  -0.8721   0.0000   0.0000   0.0000   0.5119
  -0.900   0.5654   0.00766   0.00206  -0.1451  0.6911  0.3054  -0.8798   0.0000   0.0000   0.0000   0.5065
  -0.800   0.5769   0.00760   0.00207  -0.1452  0.6895  0.3257  -0.8878   0.0000   0.0000   0.0000   0.5014
  -0.700   0.5883   0.00753   0.00207  -0.1453  0.6877  0.3465  -0.8958   0.0000   0.0000   0.0000   0.4965
  -0.600   0.5997   0.00747   0.00207  -0.1454  0.6860  0.3685  -0.9038   0.0000   0.0000   0.0000   0.4918
  -0.500   0.6111   0.00741   0.00207  -0.1455  0.6844  0.3919  -0.9118   0.0000   0.0000   0.0000   0.4872
  -0.400   0.6226   0.00735   0.00207  -0.1456  0.6828  0.4164  -0.9198   0.0000   0.0000   0.0000   0.4828
  -0.300   0.6340   0.00730   0.00207  -0.1456  0.6814  0.4413  -0.9280   0.0000   0.0000   0.0000   0.4786
  -0.200   0.6454   0.00725   0.00208  -0.1457  0.6799  0.4674  -0.9363   0.0000   0.0000   0.0000   0.4745
  -0.100   0.6567   0.00719   0.00209  -0.1458  0.6780  0.4943  -0.9445   0.0000   0.0000   0.0000   0.4706
   0.000   0.6681   0.00713   0.00211  -0.1459  0.6761  0.5216  -0.9529   0.0000   0.0000   0.0000   0.4667
   0.100   0.6794   0.00707   0.00212  -0.1459  0.6743  0.5481  -0.9615   0.0000   0.0000   0.0000   0.4630
   0.200   0.6907   0.00703   0.00213  -0.1460  0.6726  0.5732  -0.9705   0.0000   0.0000   0.0000   0.4594
   0.300   0.7019   0.00699   0.00214  -0.1460  0.6710  0.5978  -0.9794   0.0000   0.0000   0.0000   0.4559
   0.400   0.7132   0.00695   0.00216  -0.1460  0.6693  0.6220  -0.9883   0.0000   0.0000   0.0000   0.4525
   0.500   0.7244   0.00691   0.00219  -0.1461  0.6673  0.6472  -0.9971   0.0000   0.0000   0.0000   0.4492
   0.600   0.7356   0.00687   0.00222  -0.1461  0.6653  0.6706  -1.0060   0.0000   0.0000   0.0000   0.4460
   0.700   0.7467   0.00684   0.00224  -0.1461  0.6634  0.6914  -1.0150   0.0000   0.0000   0.0000   0.4429
   0.800   0.7578   0.00683   0.00225  -0.1460  0.6617  0.7103  -1.0241   0.0000   0.0000   0.0000   0.4399
   0.900   0.7689   0.00682   0.00227  -0.1460  0.6600  0.7278  -1.0335   0.0000   0.0000   0.0000   0.4369
   1.000   0.7800   0.00680   0.00230  -0.1460  0.6581  0.7443  -1.0429   0.0000   0.0000   0.0000   0.4340
   1.100   0.7910   0.00678   0.00232  -0.1459  0.6559  0.7606  -1.0522   0.0000   0.0000   0.0000   0.4312
   1.200   0.8020   0.00676   0.00234  -0.1459  0.6538  0.7766  -1.0616   0.0000   0.0000   0.0000   0.4285
   1.300   0.8129   0.00675   0.00236  -0.1458  0.6518  0.7917  -1.0715   0.0000   0.0000   0.0000   0.4258
   1.400   0.8236   0.00674   0.00238  -0.1457  0.6499  0.8067  -1.0815   0.0000   0.0000   0.0000   0.4232
   1.500   0.8343   0.00674   0.00240  -0.1455  0.6479  0.8224  -1.0915   0.0000   0.0000   0.0000   0.4206
   1.600   0.8449   0.00671   0.00242  -0.1454  0.6455  0.8382  -1.1014   0.0000   0.0000   0.0000   0.4181
   1.700   0.8553   0.00669   0.00245  -0.1452  0.6432  0.8545  -1.1113   0.0000   0.0000   0.0000   0.4157
   1.800   0.8652   0.00667   0.00246  -0.1449  0.6411  0.8723  -1.1209   0.0000   0.0000   0.0000   0.4132
   1.900   0.8746   0.00665   0.00247  -0.1444  0.6391  0.8932  -1.1307   0.0000   0.0000   0.0000   0.4107
   2.000   0.8836   0.00661   0.00249  -0.1438  0.6370  0.9188  -1.1402   0.0000   0.0000   0.0000   0.4083
   2.100   0.8951   0.00655   0.00248  -0.1438  0.6345  0.9573  -1.1514   0.0000   0.0000   0.0000   0.4060
   2.200   0.9103   0.00655   0.00247  -0.1447  0.6320  1.0000  -1.1649   0.0000   0.0000   0.0000   0.4042
   2.300   0.9217   0.00658   0.00249  -0.1448  0.6297  1.0000  -1.1760   0.0000   0.0000   0.0000   0.4022
   2.400   0.9329   0.00663   0.00250  -0.1448  0.6276  1.0000  -1.1877   0.0000   0.0000   0.0000   0.4002
   2.500   0.9444   0.00665   0.00253  -0.1449  0.6249  1.0000  -1.1996   0.0000   0.0000   0.0000   0.3983
   2.600   0.9557   0.00668   0.00255  -0.1450  0.6222  1.0000  -1.2117   0.0000   0.0000   0.0000   0.3964
   2.700   0.9669   0.00672   0.00257  -0.1450  0.6197  1.0000  -1.2237   0.0000   0.0000   0.0000   0.3945
   2.800   0.9780   0.00677   0.00259  -0.1450  0.6173  1.0000  -1.2357   0.0000   0.0000   0.0000   0.3927
   2.900   0.9894   0.00679   0.00262  -0.1451  0.6146  1.0000  -1.2479   0.0000   0.0000   0.0000   0.3910
   3.000   1.0006   0.00683   0.00265  -0.1451  0.6117  1.0000  -1.2603   0.0000   0.0000   0.0000   0.3892
   3.100   1.0118   0.00687   0.00267  -0.1452  0.6089  1.0000  -1.2730   0.0000   0.0000   0.0000   0.3875
   3.200   1.0227   0.00692   0.00270  -0.1452  0.6064  1.0000  -1.2857   0.0000   0.0000   0.0000   0.3859
   3.300   1.0340   0.00695   0.00273  -0.1452  0.6034  1.0000  -1.2986   0.0000   0.0000   0.0000   0.3842
   3.400   1.0451   0.00699   0.00277  -0.1452  0.6003  1.0000  -1.3116   0.0000   0.0000   0.0000   0.3826
   3.500   1.0561   0.00704   0.00280  -0.1452  0.5974  1.0000  -1.3247   0.0000   0.0000   0.0000   0.3811
   3.600   1.0670   0.00709   0.00283  -0.1452  0.5946  1.0000  -1.3382   0.0000   0.0000   0.0000   0.3795
   3.700   1.0782   0.00713   0.00287  -0.1453  0.5912  1.0000  -1.3520   0.0000   0.0000   0.0000   0.3780
   3.800   1.0891   0.00718   0.00290  -0.1453  0.5879  1.0000  -1.3660   0.0000   0.0000   0.0000   0.3765
   4.000   1.1108   0.00728   0.00298  -0.1452  0.5813  1.0000  -1.3957   0.0000   0.0000   0.0000   0.3736
   4.100   1.1217   0.00733   0.00303  -0.1452  0.5776  1.0000  -1.4110   0.0000   0.0000   0.0000   0.3722
   4.300   1.1431   0.00745   0.00311  -0.1451  0.5703  1.0000  -1.4420   0.0000   0.0000   0.0000   0.3694
   4.400   1.1538   0.00751   0.00316  -0.1451  0.5663  1.0000  -1.4578   0.0000   0.0000   0.0000   0.3681
   4.500   1.1642   0.00758   0.00321  -0.1450  0.5627  1.0000  -1.4734   0.0000   0.0000   0.0000   0.3667
   4.600   1.1751   0.00763   0.00326  -0.1450  0.5585  1.0000  -1.4898   0.0000   0.0000   0.0000   0.3654
   4.700   1.1855   0.00770   0.00331  -0.1449  0.5545  1.0000  -1.5061   0.0000   0.0000   0.0000   0.3641
   4.800   1.1960   0.00778   0.00337  -0.1448  0.5506  1.0000  -1.5223   0.0000   0.0000   0.0000   0.3628
   4.900   1.2066   0.00784   0.00343  -0.1448  0.5463  1.0000  -1.5390   0.0000   0.0000   0.0000   0.3616
   5.000   1.2168   0.00792   0.00349  -0.1446  0.5422  1.0000  -1.5557   0.0000   0.0000   0.0000   0.3603
   5.100   1.2273   0.00799   0.00355  -0.1446  0.5379  1.0000  -1.5733   0.0000   0.0000   0.0000   0.3591
   5.200   1.2376   0.00807   0.00361  -0.1445  0.5333  1.0000  -1.5919   0.0000   0.0000   0.0000   0.3579
   5.300   1.2477   0.00815   0.00368  -0.1443  0.5290  1.0000  -1.6108   0.0000   0.0000   0.0000   0.3567
   5.400   1.2580   0.00823   0.00375  -0.1442  0.5241  1.0000  -1.6304   0.0000   0.0000   0.0000   0.3556
   5.500   1.2677   0.00834   0.00382  -0.1440  0.5194  1.0000  -1.6499   0.0000   0.0000   0.0000   0.3544
   5.600   1.2780   0.00841   0.00389  -0.1439  0.5140  1.0000  -1.6700   0.0000   0.0000   0.0000   0.3532
   5.800   1.2976   0.00861   0.00406  -0.1436  0.5031  1.0000  -1.7102   0.0000   0.0000   0.0000   0.3510
   5.900   1.3069   0.00874   0.00415  -0.1433  0.4977  1.0000  -1.7302   0.0000   0.0000   0.0000   0.3498
   6.000   1.3168   0.00882   0.00423  -0.1431  0.4919  1.0000  -1.7511   0.0000   0.0000   0.0000   0.3487
   6.100   1.3260   0.00895   0.00433  -0.1428  0.4864  1.0000  -1.7719   0.0000   0.0000   0.0000   0.3476
   6.200   1.3358   0.00905   0.00441  -0.1427  0.4806  1.0000  -1.7943   0.0000   0.0000   0.0000   0.3466
   6.300   1.3449   0.00918   0.00452  -0.1424  0.4752  1.0000  -1.8196   0.0000   0.0000   0.0000   0.3455
   6.400   1.3544   0.00929   0.00461  -0.1422  0.4693  1.0000  -1.8456   0.0000   0.0000   0.0000   0.3444
   6.500   1.3634   0.00943   0.00472  -0.1418  0.4637  1.0000  -1.8710   0.0000   0.0000   0.0000   0.3433
   6.600   1.3726   0.00954   0.00483  -0.1416  0.4577  1.0000  -1.8979   0.0000   0.0000   0.0000   0.3423
   6.700   1.3814   0.00968   0.00494  -0.1412  0.4519  1.0000  -1.9267   0.0000   0.0000   0.0000   0.3412
   6.800   1.3903   0.00982   0.00505  -0.1409  0.4456  1.0000  -1.9558   0.0000   0.0000   0.0000   0.3402
   6.900   1.3989   0.00996   0.00517  -0.1405  0.4394  1.0000  -1.9860   0.0000   0.0000   0.0000   0.3392
   7.100   1.4153   0.01029   0.00544  -0.1397  0.4252  1.0000  -2.0454   0.0000   0.0000   0.0000   0.3371
   7.200   1.4232   0.01046   0.00558  -0.1392  0.4181  1.0000  -2.0748   0.0000   0.0000   0.0000   0.3360
   7.300   1.4305   0.01066   0.00574  -0.1386  0.4109  1.0000  -2.1042   0.0000   0.0000   0.0000   0.3350
   7.400   1.4386   0.01081   0.00588  -0.1382  0.4036  1.0000  -2.1365   0.0000   0.0000   0.0000   0.3340
   7.500   1.4462   0.01099   0.00603  -0.1377  0.3970  1.0000  -2.1686   0.0000   0.0000   0.0000   0.3329
   7.600   1.4532   0.01118   0.00618  -0.1370  0.3905  1.0000  -2.1998   0.0000   0.0000   0.0000   0.3319
   7.700   1.4602   0.01134   0.00633  -0.1364  0.3842  1.0000  -2.2314   0.0000   0.0000   0.0000   0.3308
   7.800   1.4664   0.01155   0.00650  -0.1356  0.3778  1.0000  -2.2616   0.0000   0.0000   0.0000   0.3298
   7.900   1.4731   0.01174   0.00667  -0.1349  0.3709  1.0000  -2.2932   0.0000   0.0000   0.0000   0.3287
   8.000   1.4795   0.01195   0.00685  -0.1342  0.3643  1.0000  -2.3256   0.0000   0.0000   0.0000   0.3277
   8.200   1.4919   0.01239   0.00725  -0.1328  0.3511  1.0000  -2.3898   0.0000   0.0000   0.0000   0.3256
   8.300   1.4979   0.01263   0.00746  -0.1320  0.3449  1.0000  -2.4217   0.0000   0.0000   0.0000   0.3246
   8.400   1.5037   0.01287   0.00768  -0.1313  0.3385  1.0000  -2.4535   0.0000   0.0000   0.0000   0.3236
   8.500   1.5099   0.01311   0.00789  -0.1306  0.3324  1.0000  -2.4860   0.0000   0.0000   0.0000   0.3227
   8.600   1.5152   0.01339   0.00814  -0.1298  0.3262  1.0000  -2.5169   0.0000   0.0000   0.0000   0.3217
   8.700   1.5213   0.01364   0.00837  -0.1292  0.3197  1.0000  -2.5573   0.0000   0.0000   0.0000   0.3207
   8.800   1.5268   0.01392   0.00863  -0.1284  0.3138  1.0000  -2.5989   0.0000   0.0000   0.0000   0.3198
   8.900   1.5320   0.01422   0.00891  -0.1277  0.3075  1.0000  -2.6399   0.0000   0.0000   0.0000   0.3188
   9.000   1.5376   0.01451   0.00918  -0.1270  0.3012  1.0000  -2.6824   0.0000   0.0000   0.0000   0.3179
   9.100   1.5425   0.01484   0.00948  -0.1262  0.2950  1.0000  -2.7230   0.0000   0.0000   0.0000   0.3169
   9.200   1.5478   0.01516   0.00977  -0.1255  0.2886  1.0000  -2.7648   0.0000   0.0000   0.0000   0.3160
   9.300   1.5530   0.01548   0.01008  -0.1248  0.2827  1.0000  -2.8067   0.0000   0.0000   0.0000   0.3151
   9.500   1.5630   0.01617   0.01072  -0.1234  0.2706  1.0000  -2.8899   0.0000   0.0000   0.0000   0.3133
   9.600   1.5676   0.01654   0.01107  -0.1226  0.2650  1.0000  -2.9309   0.0000   0.0000   0.0000   0.3125
   9.700   1.5724   0.01692   0.01142  -0.1219  0.2590  1.0000  -2.9724   0.0000   0.0000   0.0000   0.3116
   9.800   1.5773   0.01729   0.01177  -0.1212  0.2532  1.0000  -3.0143   0.0000   0.0000   0.0000   0.3107
   9.900   1.5812   0.01771   0.01217  -0.1204  0.2473  1.0000  -3.0539   0.0000   0.0000   0.0000   0.3099
  10.000   1.5858   0.01811   0.01255  -0.1197  0.2409  1.0000  -3.0954   0.0000   0.0000   0.0000   0.3090
  10.100   1.5900   0.01853   0.01295  -0.1190  0.2349  1.0000  -3.1361   0.0000   0.0000   0.0000   0.3082
  10.200   1.5936   0.01900   0.01338  -0.1182  0.2289  1.0000  -3.1752   0.0000   0.0000   0.0000   0.3073
  10.300   1.5979   0.01943   0.01379  -0.1175  0.2226  1.0000  -3.2164   0.0000   0.0000   0.0000   0.3065
  10.400   1.6017   0.01989   0.01422  -0.1168  0.2167  1.0000  -3.2564   0.0000   0.0000   0.0000   0.3057
  10.500   1.6048   0.02039   0.01470  -0.1160  0.2107  1.0000  -3.2954   0.0000   0.0000   0.0000   0.3049
  10.600   1.6086   0.02086   0.01514  -0.1152  0.2045  1.0000  -3.3382   0.0000   0.0000   0.0000   0.3040
  10.700   1.6121   0.02136   0.01561  -0.1145  0.1985  1.0000  -3.3802   0.0000   0.0000   0.0000   0.3032
  10.800   1.6150   0.02189   0.01612  -0.1137  0.1927  1.0000  -3.4207   0.0000   0.0000   0.0000   0.3024
  10.900   1.6182   0.02241   0.01661  -0.1129  0.1867  1.0000  -3.4623   0.0000   0.0000   0.0000   0.3016
  11.000   1.6215   0.02292   0.01711  -0.1122  0.1811  1.0000  -3.5042   0.0000   0.0000   0.0000   0.3008
  11.100   1.6242   0.02349   0.01764  -0.1114  0.1758  1.0000  -3.5444   0.0000   0.0000   0.0000   0.3000
  11.200   1.6274   0.02401   0.01815  -0.1107  0.1703  1.0000  -3.5863   0.0000   0.0000   0.0000   0.2993
  11.300   1.6304   0.02456   0.01868  -0.1099  0.1653  1.0000  -3.6280   0.0000   0.0000   0.0000   0.2985
  11.500   1.6363   0.02567   0.01976  -0.1085  0.1556  1.0000  -3.7110   0.0000   0.0000   0.0000   0.2970
  11.600   1.6389   0.02626   0.02032  -0.1077  0.1511  1.0000  -3.7517   0.0000   0.0000   0.0000   0.2962
  11.700   1.6417   0.02683   0.02088  -0.1070  0.1465  1.0000  -3.7932   0.0000   0.0000   0.0000   0.2955
  11.800   1.6445   0.02740   0.02144  -0.1063  0.1423  1.0000  -3.8347   0.0000   0.0000   0.0000   0.2947
  11.900   1.6469   0.02801   0.02203  -0.1056  0.1381  1.0000  -3.8752   0.0000   0.0000   0.0000   0.2940
  12.000   1.6499   0.02858   0.02259  -0.1049  0.1340  1.0000  -3.9175   0.0000   0.0000   0.0000   0.2933
  12.100   1.6520   0.02922   0.02322  -0.1042  0.1300  1.0000  -3.9571   0.0000   0.0000   0.0000   0.2925
  12.200   1.6550   0.02980   0.02379  -0.1035  0.1260  1.0000  -3.9998   0.0000   0.0000   0.0000   0.2918
  12.300   1.6568   0.03047   0.02444  -0.1028  0.1223  1.0000  -4.0390   0.0000   0.0000   0.0000   0.2911
  12.400   1.6597   0.03107   0.02504  -0.1021  0.1184  1.0000  -4.0814   0.0000   0.0000   0.0000   0.2904
  12.500   1.6615   0.03174   0.02570  -0.1014  0.1149  1.0000  -4.1206   0.0000   0.0000   0.0000   0.2897
  12.600   1.6640   0.03237   0.02632  -0.1008  0.1112  1.0000  -4.1624   0.0000   0.0000   0.0000   0.2890
  12.700   1.6657   0.03307   0.02701  -0.1001  0.1080  1.0000  -4.2013   0.0000   0.0000   0.0000   0.2883
  12.800   1.6682   0.03371   0.02765  -0.0994  0.1045  1.0000  -4.2433   0.0000   0.0000   0.0000   0.2877
  12.900   1.6698   0.03444   0.02837  -0.0988  0.1014  1.0000  -4.2821   0.0000   0.0000   0.0000   0.2870
  13.000   1.6724   0.03510   0.02903  -0.0982  0.0982  1.0000  -4.3242   0.0000   0.0000   0.0000   0.2863
  13.100   1.6738   0.03586   0.02978  -0.0975  0.0953  1.0000  -4.3626   0.0000   0.0000   0.0000   0.2857
  13.200   1.6764   0.03653   0.03045  -0.0969  0.0922  1.0000  -4.4052   0.0000   0.0000   0.0000   0.2850
  13.300   1.6778   0.03731   0.03122  -0.0963  0.0894  1.0000  -4.4437   0.0000   0.0000   0.0000   0.2844
  13.400   1.6802   0.03801   0.03192  -0.0958  0.0866  1.0000  -4.4857   0.0000   0.0000   0.0000   0.2838
  13.500   1.6816   0.03879   0.03269  -0.0951  0.0838  1.0000  -4.5246   0.0000   0.0000   0.0000   0.2832
  13.600   1.6836   0.03952   0.03343  -0.0946  0.0813  1.0000  -4.5682   0.0000   0.0000   0.0000   0.2825
  13.700   1.6851   0.04031   0.03421  -0.0940  0.0786  1.0000  -4.6103   0.0000   0.0000   0.0000   0.2819
  13.800   1.6866   0.04111   0.03501  -0.0934  0.0763  1.0000  -4.6520   0.0000   0.0000   0.0000   0.2813
  13.900   1.6886   0.04187   0.03578  -0.0929  0.0739  1.0000  -4.6974   0.0000   0.0000   0.0000   0.2807
  14.000   1.6895   0.04273   0.03664  -0.0924  0.0717  1.0000  -4.7428   0.0000   0.0000   0.0000   0.2802
  14.100   1.6917   0.04349   0.03741  -0.0919  0.0696  1.0000  -4.7935   0.0000   0.0000   0.0000   0.2796
  14.200   1.6932   0.04432   0.03824  -0.0914  0.0675  1.0000  -4.8414   0.0000   0.0000   0.0000   0.2790
  14.300   1.6940   0.04522   0.03914  -0.0908  0.0657  1.0000  -4.8868   0.0000   0.0000   0.0000   0.2785
  14.400   1.6964   0.04598   0.03991  -0.0904  0.0639  1.0000  -4.9387   0.0000   0.0000   0.0000   0.2779
  14.500   1.6978   0.04684   0.04078  -0.0899  0.0622  1.0000  -4.9865   0.0000   0.0000   0.0000   0.2774
  14.700   1.7006   0.04856   0.04252  -0.0890  0.0592  1.0000  -5.0828   0.0000   0.0000   0.0000   0.2763
  14.800   1.7020   0.04943   0.04340  -0.0886  0.0577  1.0000  -5.1312   0.0000   0.0000   0.0000   0.2758
  14.900   1.7028   0.05036   0.04434  -0.0881  0.0563  1.0000  -5.1770   0.0000   0.0000   0.0000   0.2752
  15.000   1.7037   0.05129   0.04528  -0.0877  0.0550  1.0000  -5.2238   0.0000   0.0000   0.0000   0.2747
  15.100   1.7056   0.05214   0.04615  -0.0873  0.0537  1.0000  -5.2743   0.0000   0.0000   0.0000   0.2742
  15.200   1.7068   0.05305   0.04708  -0.0869  0.0524  1.0000  -5.3223   0.0000   0.0000   0.0000   0.2737
  15.300   1.7071   0.05407   0.04810  -0.0865  0.0513  1.0000  -5.3667   0.0000   0.0000   0.0000   0.2732
  15.400   1.7079   0.05505   0.04909  -0.0861  0.0502  1.0000  -5.4128   0.0000   0.0000   0.0000   0.2728
  15.500   1.7098   0.05591   0.04998  -0.0858  0.0491  1.0000  -5.4641   0.0000   0.0000   0.0000   0.2723
  15.600   1.7107   0.05689   0.05097  -0.0855  0.0480  1.0000  -5.5114   0.0000   0.0000   0.0000   0.2718
  15.700   1.7111   0.05792   0.05202  -0.0851  0.0469  1.0000  -5.5563   0.0000   0.0000   0.0000   0.2714
  15.900   1.7124   0.05996   0.05409  -0.0844  0.0450  1.0000  -5.6484   0.0000   0.0000   0.0000   0.2705
  16.000   1.7137   0.06091   0.05507  -0.0841  0.0440  1.0000  -5.6974   0.0000   0.0000   0.0000   0.2700
  16.100   1.7141   0.06196   0.05614  -0.0838  0.0431  1.0000  -5.7424   0.0000   0.0000   0.0000   0.2696
  16.200   1.7137   0.06310   0.05729  -0.0835  0.0422  1.0000  -5.7843   0.0000   0.0000   0.0000   0.2692
  16.300   1.7131   0.06427   0.05847  -0.0832  0.0413  1.0000  -5.8248   0.0000   0.0000   0.0000   0.2688
  16.400   1.7145   0.06524   0.05947  -0.0830  0.0404  1.0000  -5.8746   0.0000   0.0000   0.0000   0.2684
  16.500   1.7151   0.06629   0.06054  -0.0827  0.0396  1.0000  -5.9212   0.0000   0.0000   0.0000   0.2680
  16.600   1.7151   0.06742   0.06169  -0.0825  0.0387  1.0000  -5.9648   0.0000   0.0000   0.0000   0.2676
  16.700   1.7143   0.06865   0.06294  -0.0822  0.0379  1.0000  -6.0046   0.0000   0.0000   0.0000   0.2672
  16.800   1.7130   0.06996   0.06426  -0.0820  0.0371  1.0000  -6.0413   0.0000   0.0000   0.0000   0.2669
  16.900   1.7141   0.07099   0.06533  -0.0818  0.0364  1.0000  -6.0901   0.0000   0.0000   0.0000   0.2665
  17.000   1.7144   0.07211   0.06647  -0.0816  0.0356  1.0000  -6.1355   0.0000   0.0000   0.0000   0.2661
  17.100   1.7142   0.07330   0.06768  -0.0815  0.0349  1.0000  -6.1781   0.0000   0.0000   0.0000   0.2658
  17.200   1.7132   0.07460   0.06900  -0.0813  0.0342  1.0000  -6.2166   0.0000   0.0000   0.0000   0.2655
  17.300   1.7116   0.07596   0.07038  -0.0811  0.0335  1.0000  -6.2526   0.0000   0.0000   0.0000   0.2652
  17.400   1.7104   0.07731   0.07175  -0.0810  0.0329  1.0000  -6.2895   0.0000   0.0000   0.0000   0.2649
  17.500   1.7109   0.07843   0.07291  -0.0809  0.0322  1.0000  -6.3356   0.0000   0.0000   0.0000   0.2645
  17.600   1.7105   0.07966   0.07416  -0.0808  0.0316  1.0000  -6.3775   0.0000   0.0000   0.0000   0.2642
  17.700   1.7095   0.08098   0.07551  -0.0807  0.0309  1.0000  -6.4158   0.0000   0.0000   0.0000   0.2639
  17.800   1.7080   0.08235   0.07690  -0.0806  0.0303  1.0000  -6.4519   0.0000   0.0000   0.0000   0.2637
  17.900   1.7056   0.08386   0.07843  -0.0805  0.0298  1.0000  -6.4831   0.0000   0.0000   0.0000   0.2635
  18.000   1.7031   0.08539   0.07998  -0.0805  0.0292  1.0000  -6.5136   0.0000   0.0000   0.0000   0.2632
  18.100   1.7032   0.08660   0.08122  -0.0804  0.0287  1.0000  -6.5575   0.0000   0.0000   0.0000   0.2630
  18.200   1.7026   0.08790   0.08256  -0.0804  0.0281  1.0000  -6.5976   0.0000   0.0000   0.0000   0.2627
  18.300   1.7014   0.08928   0.08397  -0.0804  0.0276  1.0000  -6.6350   0.0000   0.0000   0.0000   0.2625
  18.400   1.6997   0.09075   0.08547  -0.0804  0.0271  1.0000  -6.6691   0.0000   0.0000   0.0000   0.2623
  18.500   1.6976   0.09226   0.08700  -0.0805  0.0267  1.0000  -6.7015   0.0000   0.0000   0.0000   0.2621
  18.600   1.6947   0.09390   0.08866  -0.0806  0.0262  1.0000  -6.7291   0.0000   0.0000   0.0000   0.2620
  18.700   1.6911   0.09564   0.09042  -0.0807  0.0258  1.0000  -6.7524   0.0000   0.0000   0.0000   0.2619
  18.800   1.6899   0.09708   0.09190  -0.0808  0.0254  1.0000  -6.7883   0.0000   0.0000   0.0000   0.2617
  18.900   1.6891   0.09844   0.09329  -0.0809  0.0251  1.0000  -6.8270   0.0000   0.0000   0.0000   0.2615
  19.000   1.6878   0.09990   0.09479  -0.0810  0.0247  1.0000  -6.8621   0.0000   0.0000   0.0000   0.2614
  19.100   1.6859   0.10141   0.09634  -0.0811  0.0243  1.0000  -6.8946   0.0000   0.0000   0.0000   0.2613
  19.200   1.6837   0.10296   0.09792  -0.0813  0.0239  1.0000  -6.9253   0.0000   0.0000   0.0000   0.2612
  19.300   1.6811   0.10459   0.09957  -0.0815  0.0236  1.0000  -6.9534   0.0000   0.0000   0.0000   0.2611
  19.400   1.6783   0.10625   0.10126  -0.0817  0.0233  1.0000  -6.9802   0.0000   0.0000   0.0000   0.2610
  19.500   1.6749   0.10801   0.10305  -0.0820  0.0230  1.0000  -7.0030   0.0000   0.0000   0.0000   0.2610
  19.600   1.6711   0.10985   0.10491  -0.0823  0.0227  1.0000  -7.0229   0.0000   0.0000   0.0000   0.2611
  19.700   1.6663   0.11183   0.10693  -0.0826  0.0225  1.0000  -7.0366   0.0000   0.0000   0.0000   0.2612
  19.800   1.6642   0.11345   0.10858  -0.0829  0.0222  1.0000  -7.0683   0.0000   0.0000   0.0000   0.2611
  19.900   1.6626   0.11498   0.11016  -0.0832  0.0220  1.0000  -7.1032   0.0000   0.0000   0.0000   0.2611
  20.000   1.6610   0.11652   0.11173  -0.0835  0.0217  1.0000  -7.1380   0.0000   0.0000   0.0000   0.2611


