xflr5 v6.57

 Calculated polar for: reaf

 1 1 Reynolds number fixed          Mach number fixed         

 xtrf =   1.000 (top)        1.000 (bottom)
 Mach =   0.000     Re =     0.760 e 6     Ncrit =   9.000

  alpha     CL        CD       CDp       Cm    Top Xtr Bot Xtr   Cpmin    Chinge    XCp    
 ------- -------- --------- --------- -------- ------- ------- -------- --------- ---------
 -10.000  -0.4562   0.01959   0.01446  -0.1372  0.8075  0.0227  -6.3463   0.0000   0.0000   0.0000  -0.0717
  -9.900  -0.4467   0.01914   0.01397  -0.1374  0.8061  0.0229  -6.2634   0.0000   0.0000   0.0000  -0.0785
  -9.800  -0.4366   0.01882   0.01363  -0.1375  0.8048  0.0231  -6.1731   0.0000   0.0000   0.0000  -0.0860
  -9.700  -0.4263   0.01856   0.01335  -0.1376  0.8037  0.0233  -6.0802   0.0000   0.0000   0.0000  -0.0941
  -9.600  -0.4159   0.01832   0.01309  -0.1377  0.8025  0.0234  -5.9869   0.0000   0.0000   0.0000  -0.1026
  -9.500  -0.4053   0.01811   0.01284  -0.1378  0.8015  0.0236  -5.8939   0.0000   0.0000   0.0000  -0.1116
  -9.400  -0.3948   0.01789   0.01259  -0.1379  0.8004  0.0238  -5.8020   0.0000   0.0000   0.0000  -0.1212
  -9.300  -0.3842   0.01765   0.01233  -0.1380  0.7991  0.0240  -5.7112   0.0000   0.0000   0.0000  -0.1314
  -9.200  -0.3736   0.01741   0.01207  -0.1381  0.7977  0.0242  -5.6216   0.0000   0.0000   0.0000  -0.1421
  -9.100  -0.3629   0.01717   0.01179  -0.1382  0.7964  0.0244  -5.5334   0.0000   0.0000   0.0000  -0.1535
  -9.000  -0.3523   0.01693   0.01150  -0.1383  0.7952  0.0247  -5.4462   0.0000   0.0000   0.0000  -0.1656
  -8.900  -0.3415   0.01671   0.01123  -0.1384  0.7941  0.0249  -5.3588   0.0000   0.0000   0.0000  -0.1785
  -8.800  -0.3308   0.01650   0.01097  -0.1385  0.7930  0.0252  -5.2714   0.0000   0.0000   0.0000  -0.1923
  -8.700  -0.3199   0.01631   0.01072  -0.1385  0.7920  0.0254  -5.1840   0.0000   0.0000   0.0000  -0.2072
  -8.600  -0.3089   0.01614   0.01050  -0.1386  0.7909  0.0257  -5.0963   0.0000   0.0000   0.0000  -0.2233
  -8.500  -0.2978   0.01599   0.01031  -0.1387  0.7896  0.0259  -5.0080   0.0000   0.0000   0.0000  -0.2408
  -8.400  -0.2874   0.01562   0.00989  -0.1388  0.7883  0.0261  -4.9334   0.0000   0.0000   0.0000  -0.2584
  -8.300  -0.2773   0.01520   0.00946  -0.1389  0.7870  0.0265  -4.8627   0.0000   0.0000   0.0000  -0.2769
  -8.200  -0.2666   0.01496   0.00921  -0.1390  0.7858  0.0267  -4.7829   0.0000   0.0000   0.0000  -0.2980
  -8.100  -0.2556   0.01477   0.00901  -0.1391  0.7847  0.0270  -4.7014   0.0000   0.0000   0.0000  -0.3212
  -8.000  -0.2446   0.01461   0.00882  -0.1391  0.7836  0.0272  -4.6199   0.0000   0.0000   0.0000  -0.3468
  -7.900  -0.2336   0.01445   0.00865  -0.1392  0.7826  0.0275  -4.5390   0.0000   0.0000   0.0000  -0.3749
  -7.800  -0.2225   0.01430   0.00847  -0.1393  0.7817  0.0278  -4.4592   0.0000   0.0000   0.0000  -0.4059
  -7.700  -0.2114   0.01414   0.00829  -0.1394  0.7804  0.0281  -4.3806   0.0000   0.0000   0.0000  -0.4402
  -7.600  -0.2003   0.01397   0.00810  -0.1394  0.7792  0.0284  -4.3031   0.0000   0.0000   0.0000  -0.4783
  -7.500  -0.1891   0.01381   0.00791  -0.1395  0.7779  0.0287  -4.2265   0.0000   0.0000   0.0000  -0.5210
  -7.400  -0.1779   0.01366   0.00772  -0.1396  0.7767  0.0291  -4.1503   0.0000   0.0000   0.0000  -0.5692
  -7.300  -0.1667   0.01351   0.00754  -0.1396  0.7755  0.0294  -4.0743   0.0000   0.0000   0.0000  -0.6241
  -7.200  -0.1554   0.01339   0.00738  -0.1397  0.7744  0.0296  -3.9981   0.0000   0.0000   0.0000  -0.6873
  -7.100  -0.1444   0.01319   0.00714  -0.1398  0.7734  0.0299  -3.9257   0.0000   0.0000   0.0000  -0.7589
  -7.000  -0.1337   0.01288   0.00682  -0.1399  0.7725  0.0304  -3.8558   0.0000   0.0000   0.0000  -0.8391
  -6.900  -0.1226   0.01272   0.00666  -0.1399  0.7714  0.0308  -3.7788   0.0000   0.0000   0.0000  -0.9378
  -6.800  -0.1113   0.01260   0.00655  -0.1400  0.7701  0.0312  -3.7009   0.0000   0.0000   0.0000  -1.0576
  -6.700  -0.1000   0.01249   0.00643  -0.1401  0.7688  0.0317  -3.6236   0.0000   0.0000   0.0000  -1.2051
  -6.600  -0.0887   0.01238   0.00631  -0.1402  0.7675  0.0321  -3.5476   0.0000   0.0000   0.0000  -1.3907
  -6.500  -0.0774   0.01227   0.00618  -0.1403  0.7663  0.0326  -3.4748   0.0000   0.0000   0.0000  -1.6310
  -6.400  -0.0660   0.01216   0.00604  -0.1403  0.7652  0.0331  -3.4078   0.0000   0.0000   0.0000  -1.9547
  -6.300  -0.0546   0.01206   0.00590  -0.1404  0.7641  0.0335  -3.3414   0.0000   0.0000   0.0000  -2.4152
  -6.200  -0.0431   0.01198   0.00578  -0.1405  0.7632  0.0338  -3.2747   0.0000   0.0000   0.0000  -3.1242
  -6.100  -0.0322   0.01172   0.00551  -0.1405  0.7622  0.0344  -3.2143   0.0000   0.0000   0.0000  -4.2723
  -6.000  -0.0210   0.01156   0.00536  -0.1406  0.7610  0.0350  -3.1483   0.0000   0.0000   0.0000  -6.6797
  -5.900  -0.0097   0.01144   0.00525  -0.1407  0.7597  0.0355  -3.0810   0.0000   0.0000   0.0000  -14.8096
  -5.800   0.0017   0.01134   0.00515  -0.1408  0.7584  0.0360  -3.0142   0.0000   0.0000   0.0000  83.9924
  -5.700   0.0132   0.01125   0.00504  -0.1409  0.7572  0.0367  -2.9483   0.0000   0.0000   0.0000  11.2942
  -5.600   0.0246   0.01116   0.00493  -0.1409  0.7560  0.0373  -2.8834   0.0000   0.0000   0.0000   6.1534
  -5.500   0.0361   0.01108   0.00483  -0.1410  0.7549  0.0379  -2.8189   0.0000   0.0000   0.0000   4.2727
  -5.400   0.0476   0.01100   0.00472  -0.1411  0.7538  0.0384  -2.7550   0.0000   0.0000   0.0000   3.3001
  -5.300   0.0588   0.01081   0.00452  -0.1412  0.7528  0.0393  -2.6936   0.0000   0.0000   0.0000   2.7206
  -5.200   0.0703   0.01072   0.00443  -0.1413  0.7518  0.0400  -2.6284   0.0000   0.0000   0.0000   2.3182
  -5.100   0.0817   0.01064   0.00436  -0.1414  0.7505  0.0408  -2.5639   0.0000   0.0000   0.0000   2.0287
  -5.000   0.0932   0.01056   0.00428  -0.1414  0.7491  0.0417  -2.5005   0.0000   0.0000   0.0000   1.8094
  -4.900   0.1047   0.01050   0.00420  -0.1415  0.7478  0.0425  -2.4379   0.0000   0.0000   0.0000   1.6375
  -4.800   0.1161   0.01040   0.00408  -0.1416  0.7466  0.0433  -2.3815   0.0000   0.0000   0.0000   1.5005
  -4.700   0.1275   0.01026   0.00395  -0.1417  0.7454  0.0443  -2.3260   0.0000   0.0000   0.0000   1.3892
  -4.600   0.1390   0.01018   0.00386  -0.1417  0.7443  0.0453  -2.2688   0.0000   0.0000   0.0000   1.2949
  -4.500   0.1506   0.01011   0.00378  -0.1418  0.7433  0.0463  -2.2123   0.0000   0.0000   0.0000   1.2146
  -4.400   0.1622   0.01007   0.00370  -0.1419  0.7423  0.0473  -2.1565   0.0000   0.0000   0.0000   1.1455
  -4.300   0.1736   0.00999   0.00362  -0.1420  0.7410  0.0483  -2.1021   0.0000   0.0000   0.0000   1.0863
  -4.200   0.1850   0.00986   0.00352  -0.1421  0.7396  0.0496  -2.0478   0.0000   0.0000   0.0000   1.0349
  -4.100   0.1965   0.00979   0.00346  -0.1422  0.7382  0.0509  -1.9923   0.0000   0.0000   0.0000   0.9890
  -4.000   0.2081   0.00974   0.00339  -0.1422  0.7369  0.0524  -1.9376   0.0000   0.0000   0.0000   0.9479
  -3.900   0.2196   0.00967   0.00331  -0.1423  0.7357  0.0538  -1.8839   0.0000   0.0000   0.0000   0.9111
  -3.800   0.2311   0.00957   0.00323  -0.1424  0.7345  0.0555  -1.8302   0.0000   0.0000   0.0000   0.8783
  -3.700   0.2427   0.00952   0.00316  -0.1425  0.7334  0.0573  -1.7764   0.0000   0.0000   0.0000   0.8483
  -3.500   0.2658   0.00938   0.00303  -0.1427  0.7311  0.0612  -1.6715   0.0000   0.0000   0.0000   0.7963
  -3.400   0.2773   0.00932   0.00298  -0.1427  0.7296  0.0636  -1.6193   0.0000   0.0000   0.0000   0.7736
  -3.300   0.2888   0.00925   0.00291  -0.1428  0.7282  0.0662  -1.5679   0.0000   0.0000   0.0000   0.7527
  -3.200   0.3003   0.00918   0.00286  -0.1429  0.7268  0.0692  -1.5164   0.0000   0.0000   0.0000   0.7334
  -3.100   0.3119   0.00912   0.00280  -0.1430  0.7255  0.0725  -1.4688   0.0000   0.0000   0.0000   0.7155
  -3.000   0.3234   0.00906   0.00274  -0.1431  0.7242  0.0764  -1.4221   0.0000   0.0000   0.0000   0.6988
  -2.900   0.3350   0.00899   0.00268  -0.1432  0.7231  0.0807  -1.3758   0.0000   0.0000   0.0000   0.6833
  -2.800   0.3466   0.00894   0.00263  -0.1433  0.7220  0.0857  -1.3296   0.0000   0.0000   0.0000   0.6688
  -2.700   0.3581   0.00888   0.00260  -0.1433  0.7205  0.0916  -1.2841   0.0000   0.0000   0.0000   0.6554
  -2.400   0.3925   0.00867   0.00249  -0.1436  0.7161  0.1149  -1.1491   0.0000   0.0000   0.0000   0.6198
  -2.300   0.4040   0.00860   0.00245  -0.1437  0.7148  0.1242  -1.1046   0.0000   0.0000   0.0000   0.6092
  -2.200   0.4156   0.00854   0.00241  -0.1438  0.7135  0.1343  -1.0605   0.0000   0.0000   0.0000   0.5993
  -2.100   0.4272   0.00849   0.00238  -0.1439  0.7123  0.1452  -1.0166   0.0000   0.0000   0.0000   0.5898
  -2.000   0.4387   0.00844   0.00236  -0.1440  0.7110  0.1565  -0.9734   0.0000   0.0000   0.0000   0.5809
  -1.900   0.4501   0.00838   0.00234  -0.1441  0.7095  0.1681  -0.9337   0.0000   0.0000   0.0000   0.5725
  -1.800   0.4616   0.00832   0.00233  -0.1442  0.7079  0.1801  -0.8944   0.0000   0.0000   0.0000   0.5645
  -1.700   0.4731   0.00826   0.00231  -0.1443  0.7063  0.1921  -0.8553   0.0000   0.0000   0.0000   0.5568
  -1.600   0.4846   0.00821   0.00228  -0.1444  0.7048  0.2045  -0.8261   0.0000   0.0000   0.0000   0.5495
  -1.500   0.4961   0.00816   0.00226  -0.1445  0.7035  0.2179  -0.8337   0.0000   0.0000   0.0000   0.5425
  -1.400   0.5076   0.00811   0.00224  -0.1446  0.7022  0.2327  -0.8413   0.0000   0.0000   0.0000   0.5359
  -1.300   0.5192   0.00807   0.00223  -0.1447  0.7008  0.2481  -0.8489   0.0000   0.0000   0.0000   0.5295
  -1.200   0.5306   0.00800   0.00223  -0.1448  0.6991  0.2635  -0.8564   0.0000   0.0000   0.0000   0.5235
  -1.100   0.5420   0.00794   0.00222  -0.1449  0.6974  0.2803  -0.8640   0.0000   0.0000   0.0000   0.5177
  -1.000   0.5535   0.00788   0.00221  -0.1450  0.6958  0.2983  -0.8715   0.0000   0.0000   0.0000   0.5121
  -0.900   0.5649   0.00782   0.00220  -0.1451  0.6943  0.3184  -0.8792   0.0000   0.0000   0.0000   0.5068
  -0.800   0.5764   0.00776   0.00219  -0.1452  0.6929  0.3396  -0.8873   0.0000   0.0000   0.0000   0.5017
  -0.700   0.5879   0.00772   0.00219  -0.1453  0.6915  0.3612  -0.8953   0.0000   0.0000   0.0000   0.4967
  -0.600   0.5993   0.00766   0.00219  -0.1454  0.6900  0.3843  -0.9033   0.0000   0.0000   0.0000   0.4920
  -0.500   0.6106   0.00759   0.00220  -0.1455  0.6882  0.4088  -0.9113   0.0000   0.0000   0.0000   0.4875
  -0.400   0.6220   0.00753   0.00220  -0.1456  0.6864  0.4340  -0.9192   0.0000   0.0000   0.0000   0.4831
  -0.300   0.6334   0.00746   0.00221  -0.1456  0.6847  0.4599  -0.9274   0.0000   0.0000   0.0000   0.4788
  -0.200   0.6447   0.00740   0.00221  -0.1457  0.6832  0.4870  -0.9357   0.0000   0.0000   0.0000   0.4747
  -0.100   0.6561   0.00735   0.00222  -0.1458  0.6817  0.5145  -0.9439   0.0000   0.0000   0.0000   0.4708
   0.000   0.6675   0.00731   0.00223  -0.1459  0.6802  0.5417  -0.9523   0.0000   0.0000   0.0000   0.4669
   0.100   0.6787   0.00725   0.00226  -0.1459  0.6783  0.5675  -0.9609   0.0000   0.0000   0.0000   0.4632
   0.200   0.6899   0.00720   0.00227  -0.1459  0.6764  0.5928  -0.9698   0.0000   0.0000   0.0000   0.4596
   0.400   0.7123   0.00711   0.00231  -0.1460  0.6728  0.6431  -0.9875   0.0000   0.0000   0.0000   0.4527
   0.500   0.7235   0.00708   0.00233  -0.1459  0.6712  0.6672  -0.9964   0.0000   0.0000   0.0000   0.4493
   0.600   0.7346   0.00706   0.00235  -0.1459  0.6695  0.6885  -1.0053   0.0000   0.0000   0.0000   0.4461
   0.700   0.7457   0.00703   0.00238  -0.1459  0.6674  0.7083  -1.0142   0.0000   0.0000   0.0000   0.4430
   0.800   0.7568   0.00700   0.00240  -0.1459  0.6654  0.7263  -1.0233   0.0000   0.0000   0.0000   0.4399
   0.900   0.7678   0.00698   0.00242  -0.1458  0.6635  0.7433  -1.0326   0.0000   0.0000   0.0000   0.4370
   1.000   0.7788   0.00696   0.00243  -0.1458  0.6617  0.7597  -1.0419   0.0000   0.0000   0.0000   0.4341
   1.100   0.7897   0.00696   0.00245  -0.1457  0.6600  0.7762  -1.0512   0.0000   0.0000   0.0000   0.4312
   1.200   0.8006   0.00694   0.00247  -0.1456  0.6580  0.7916  -1.0606   0.0000   0.0000   0.0000   0.4285
   1.300   0.8113   0.00692   0.00250  -0.1455  0.6558  0.8070  -1.0704   0.0000   0.0000   0.0000   0.4258
   1.500   0.8324   0.00688   0.00253  -0.1451  0.6516  0.8389  -1.0902   0.0000   0.0000   0.0000   0.4205
   1.600   0.8426   0.00687   0.00254  -0.1449  0.6497  0.8554  -1.0999   0.0000   0.0000   0.0000   0.4180
   1.700   0.8525   0.00685   0.00256  -0.1445  0.6476  0.8735  -1.1094   0.0000   0.0000   0.0000   0.4155
   1.800   0.8619   0.00681   0.00258  -0.1441  0.6453  0.8947  -1.1187   0.0000   0.0000   0.0000   0.4130
   1.900   0.8709   0.00677   0.00259  -0.1435  0.6430  0.9208  -1.1282   0.0000   0.0000   0.0000   0.4104
   2.000   0.8830   0.00672   0.00257  -0.1436  0.6408  0.9596  -1.1397   0.0000   0.0000   0.0000   0.4082
   2.100   0.8980   0.00673   0.00256  -0.1444  0.6388  1.0000  -1.1531   0.0000   0.0000   0.0000   0.4063
   2.200   0.9094   0.00675   0.00258  -0.1445  0.6364  1.0000  -1.1641   0.0000   0.0000   0.0000   0.4042
   2.300   0.9208   0.00678   0.00260  -0.1446  0.6339  1.0000  -1.1753   0.0000   0.0000   0.0000   0.4022
   2.400   0.9322   0.00681   0.00262  -0.1447  0.6314  1.0000  -1.1870   0.0000   0.0000   0.0000   0.4002
   2.500   0.9434   0.00685   0.00263  -0.1447  0.6292  1.0000  -1.1988   0.0000   0.0000   0.0000   0.3983
   2.600   0.9547   0.00689   0.00265  -0.1448  0.6269  1.0000  -1.2108   0.0000   0.0000   0.0000   0.3964
   2.700   0.9660   0.00691   0.00268  -0.1448  0.6241  1.0000  -1.2229   0.0000   0.0000   0.0000   0.3945
   2.800   0.9773   0.00694   0.00270  -0.1449  0.6214  1.0000  -1.2350   0.0000   0.0000   0.0000   0.3927
   2.900   0.9884   0.00699   0.00272  -0.1449  0.6189  1.0000  -1.2470   0.0000   0.0000   0.0000   0.3909
   3.000   0.9995   0.00703   0.00275  -0.1449  0.6165  1.0000  -1.2593   0.0000   0.0000   0.0000   0.3892
   3.100   1.0108   0.00706   0.00278  -0.1450  0.6135  1.0000  -1.2721   0.0000   0.0000   0.0000   0.3875
   3.200   1.0220   0.00710   0.00281  -0.1450  0.6106  1.0000  -1.2849   0.0000   0.0000   0.0000   0.3858
   3.300   1.0330   0.00715   0.00284  -0.1450  0.6079  1.0000  -1.2976   0.0000   0.0000   0.0000   0.3842
   3.400   1.0440   0.00719   0.00287  -0.1450  0.6053  1.0000  -1.3106   0.0000   0.0000   0.0000   0.3826
   3.500   1.0552   0.00723   0.00290  -0.1451  0.6021  1.0000  -1.3238   0.0000   0.0000   0.0000   0.3810
   3.600   1.0662   0.00727   0.00294  -0.1451  0.5990  1.0000  -1.3373   0.0000   0.0000   0.0000   0.3795
   3.700   1.0770   0.00733   0.00297  -0.1450  0.5962  1.0000  -1.3509   0.0000   0.0000   0.0000   0.3779
   3.800   1.0880   0.00737   0.00301  -0.1451  0.5929  1.0000  -1.3650   0.0000   0.0000   0.0000   0.3765
   3.900   1.0990   0.00741   0.00305  -0.1451  0.5895  1.0000  -1.3798   0.0000   0.0000   0.0000   0.3750
   4.000   1.1097   0.00747   0.00308  -0.1450  0.5863  1.0000  -1.3946   0.0000   0.0000   0.0000   0.3735
   4.100   1.1205   0.00752   0.00313  -0.1450  0.5830  1.0000  -1.4099   0.0000   0.0000   0.0000   0.3721
   4.200   1.1314   0.00757   0.00317  -0.1450  0.5793  1.0000  -1.4253   0.0000   0.0000   0.0000   0.3707
   4.300   1.1420   0.00763   0.00322  -0.1449  0.5756  1.0000  -1.4408   0.0000   0.0000   0.0000   0.3694
   4.400   1.1527   0.00769   0.00326  -0.1449  0.5720  1.0000  -1.4566   0.0000   0.0000   0.0000   0.3680
   4.500   1.1634   0.00775   0.00331  -0.1448  0.5680  1.0000  -1.4725   0.0000   0.0000   0.0000   0.3667
   4.600   1.1738   0.00782   0.00336  -0.1447  0.5642  1.0000  -1.4886   0.0000   0.0000   0.0000   0.3653
   4.700   1.1845   0.00788   0.00341  -0.1447  0.5603  1.0000  -1.5049   0.0000   0.0000   0.0000   0.3641
   4.800   1.1950   0.00794   0.00347  -0.1446  0.5561  1.0000  -1.5213   0.0000   0.0000   0.0000   0.3628
   5.000   1.2159   0.00808   0.00359  -0.1445  0.5481  1.0000  -1.5547   0.0000   0.0000   0.0000   0.3603
   5.100   1.2261   0.00816   0.00365  -0.1443  0.5438  1.0000  -1.5720   0.0000   0.0000   0.0000   0.3591
   5.200   1.2364   0.00824   0.00371  -0.1442  0.5397  1.0000  -1.5905   0.0000   0.0000   0.0000   0.3579
   5.300   1.2467   0.00831   0.00378  -0.1441  0.5350  1.0000  -1.6097   0.0000   0.0000   0.0000   0.3567
   5.500   1.2669   0.00848   0.00391  -0.1439  0.5258  1.0000  -1.6488   0.0000   0.0000   0.0000   0.3543
   5.600   1.2767   0.00858   0.00399  -0.1437  0.5209  1.0000  -1.6685   0.0000   0.0000   0.0000   0.3532
   5.700   1.2867   0.00867   0.00407  -0.1435  0.5158  1.0000  -1.6884   0.0000   0.0000   0.0000   0.3520
   5.800   1.2964   0.00877   0.00415  -0.1433  0.5104  1.0000  -1.7086   0.0000   0.0000   0.0000   0.3509
   5.900   1.3061   0.00887   0.00424  -0.1431  0.5050  1.0000  -1.7291   0.0000   0.0000   0.0000   0.3498
   6.000   1.3156   0.00898   0.00432  -0.1429  0.4993  1.0000  -1.7495   0.0000   0.0000   0.0000   0.3486
   6.100   1.3252   0.00909   0.00441  -0.1427  0.4938  1.0000  -1.7707   0.0000   0.0000   0.0000   0.3476
   6.200   1.3344   0.00921   0.00451  -0.1424  0.4881  1.0000  -1.7923   0.0000   0.0000   0.0000   0.3465
   6.300   1.3440   0.00932   0.00460  -0.1422  0.4826  1.0000  -1.8182   0.0000   0.0000   0.0000   0.3454
   6.400   1.3530   0.00945   0.00471  -0.1419  0.4769  1.0000  -1.8434   0.0000   0.0000   0.0000   0.3443
   6.500   1.3624   0.00956   0.00481  -0.1416  0.4712  1.0000  -1.8694   0.0000   0.0000   0.0000   0.3432
   6.600   1.3711   0.00970   0.00492  -0.1413  0.4655  1.0000  -1.8955   0.0000   0.0000   0.0000   0.3422
   6.700   1.3803   0.00982   0.00503  -0.1410  0.4596  1.0000  -1.9248   0.0000   0.0000   0.0000   0.3411
   6.800   1.3887   0.00998   0.00515  -0.1406  0.4538  1.0000  -1.9531   0.0000   0.0000   0.0000   0.3401
   6.900   1.3977   0.01010   0.00526  -0.1403  0.4475  1.0000  -1.9838   0.0000   0.0000   0.0000   0.3391
   7.000   1.4059   0.01026   0.00540  -0.1398  0.4412  1.0000  -2.0134   0.0000   0.0000   0.0000   0.3380
   7.100   1.4140   0.01042   0.00553  -0.1394  0.4342  1.0000  -2.0430   0.0000   0.0000   0.0000   0.3370
   7.200   1.4221   0.01059   0.00567  -0.1389  0.4270  1.0000  -2.0727   0.0000   0.0000   0.0000   0.3359
   7.300   1.4296   0.01077   0.00582  -0.1384  0.4199  1.0000  -2.1022   0.0000   0.0000   0.0000   0.3349
   7.400   1.4371   0.01095   0.00597  -0.1379  0.4126  1.0000  -2.1334   0.0000   0.0000   0.0000   0.3338
   7.500   1.4448   0.01113   0.00612  -0.1373  0.4057  1.0000  -2.1657   0.0000   0.0000   0.0000   0.3328
   7.600   1.4514   0.01132   0.00628  -0.1367  0.3992  1.0000  -2.1963   0.0000   0.0000   0.0000   0.3318
   7.700   1.4584   0.01149   0.00643  -0.1360  0.3927  1.0000  -2.2277   0.0000   0.0000   0.0000   0.3307
   7.800   1.4649   0.01168   0.00660  -0.1353  0.3865  1.0000  -2.2585   0.0000   0.0000   0.0000   0.3296
   7.900   1.4711   0.01189   0.00678  -0.1345  0.3799  1.0000  -2.2889   0.0000   0.0000   0.0000   0.3286
   8.000   1.4777   0.01209   0.00696  -0.1339  0.3732  1.0000  -2.3216   0.0000   0.0000   0.0000   0.3275
   8.100   1.4836   0.01232   0.00716  -0.1331  0.3667  1.0000  -2.3530   0.0000   0.0000   0.0000   0.3265
   8.200   1.4897   0.01255   0.00736  -0.1323  0.3600  1.0000  -2.3851   0.0000   0.0000   0.0000   0.3255
   8.300   1.4959   0.01277   0.00757  -0.1316  0.3536  1.0000  -2.4172   0.0000   0.0000   0.0000   0.3245
   8.400   1.5012   0.01304   0.00781  -0.1308  0.3473  1.0000  -2.4479   0.0000   0.0000   0.0000   0.3235
   8.500   1.5075   0.01327   0.00802  -0.1302  0.3408  1.0000  -2.4808   0.0000   0.0000   0.0000   0.3225
   8.600   1.5131   0.01354   0.00826  -0.1294  0.3348  1.0000  -2.5121   0.0000   0.0000   0.0000   0.3215
   8.700   1.5186   0.01382   0.00851  -0.1287  0.3284  1.0000  -2.5498   0.0000   0.0000   0.0000   0.3205
   8.800   1.5244   0.01409   0.00877  -0.1280  0.3222  1.0000  -2.5919   0.0000   0.0000   0.0000   0.3196
   8.900   1.5292   0.01441   0.00906  -0.1272  0.3162  1.0000  -2.6321   0.0000   0.0000   0.0000   0.3186
   9.000   1.5350   0.01469   0.00933  -0.1265  0.3098  1.0000  -2.6747   0.0000   0.0000   0.0000   0.3177
   9.100   1.5401   0.01501   0.00962  -0.1257  0.3037  1.0000  -2.7157   0.0000   0.0000   0.0000   0.3168
   9.200   1.5448   0.01536   0.00994  -0.1250  0.2973  1.0000  -2.7562   0.0000   0.0000   0.0000   0.3159
   9.300   1.5502   0.01567   0.01024  -0.1243  0.2911  1.0000  -2.7985   0.0000   0.0000   0.0000   0.3150
   9.400   1.5548   0.01604   0.01058  -0.1235  0.2851  1.0000  -2.8389   0.0000   0.0000   0.0000   0.3141
   9.500   1.5598   0.01639   0.01091  -0.1228  0.2789  1.0000  -2.8806   0.0000   0.0000   0.0000   0.3132
   9.600   1.5647   0.01675   0.01125  -0.1221  0.2731  1.0000  -2.9222   0.0000   0.0000   0.0000   0.3123
   9.800   1.5741   0.01751   0.01196  -0.1207  0.2613  1.0000  -3.0047   0.0000   0.0000   0.0000   0.3106
   9.900   1.5783   0.01792   0.01235  -0.1200  0.2556  1.0000  -3.0450   0.0000   0.0000   0.0000   0.3097
  10.000   1.5826   0.01833   0.01275  -0.1192  0.2495  1.0000  -3.0857   0.0000   0.0000   0.0000   0.3089
  10.100   1.5870   0.01875   0.01314  -0.1185  0.2434  1.0000  -3.1267   0.0000   0.0000   0.0000   0.3080
  10.200   1.5906   0.01921   0.01358  -0.1177  0.2375  1.0000  -3.1660   0.0000   0.0000   0.0000   0.3072
  10.300   1.5947   0.01966   0.01400  -0.1170  0.2312  1.0000  -3.2064   0.0000   0.0000   0.0000   0.3063
  10.400   1.5986   0.02011   0.01443  -0.1163  0.2252  1.0000  -3.2467   0.0000   0.0000   0.0000   0.3055
  10.500   1.6018   0.02062   0.01491  -0.1155  0.2193  1.0000  -3.2850   0.0000   0.0000   0.0000   0.3047
  10.600   1.6054   0.02110   0.01536  -0.1148  0.2131  1.0000  -3.3272   0.0000   0.0000   0.0000   0.3039
  10.700   1.6089   0.02159   0.01583  -0.1140  0.2070  1.0000  -3.3692   0.0000   0.0000   0.0000   0.3031
  10.800   1.6118   0.02213   0.01635  -0.1132  0.2011  1.0000  -3.4094   0.0000   0.0000   0.0000   0.3023
  10.900   1.6149   0.02266   0.01685  -0.1124  0.1950  1.0000  -3.4506   0.0000   0.0000   0.0000   0.3015
  11.000   1.6180   0.02318   0.01735  -0.1117  0.1892  1.0000  -3.4921   0.0000   0.0000   0.0000   0.3007
  11.100   1.6207   0.02375   0.01789  -0.1109  0.1837  1.0000  -3.5321   0.0000   0.0000   0.0000   0.2999
  11.200   1.6236   0.02430   0.01842  -0.1102  0.1781  1.0000  -3.5730   0.0000   0.0000   0.0000   0.2991
  11.300   1.6267   0.02484   0.01894  -0.1094  0.1728  1.0000  -3.6148   0.0000   0.0000   0.0000   0.2983
  11.400   1.6291   0.02544   0.01952  -0.1087  0.1678  1.0000  -3.6545   0.0000   0.0000   0.0000   0.2976
  11.500   1.6322   0.02599   0.02005  -0.1080  0.1627  1.0000  -3.6965   0.0000   0.0000   0.0000   0.2968
  11.600   1.6349   0.02657   0.02062  -0.1072  0.1580  1.0000  -3.7373   0.0000   0.0000   0.0000   0.2961
  11.700   1.6372   0.02717   0.02120  -0.1065  0.1533  1.0000  -3.7772   0.0000   0.0000   0.0000   0.2953
  11.800   1.6401   0.02774   0.02176  -0.1058  0.1488  1.0000  -3.8191   0.0000   0.0000   0.0000   0.2946
  11.900   1.6421   0.02839   0.02238  -0.1050  0.1445  1.0000  -3.8579   0.0000   0.0000   0.0000   0.2938
  12.000   1.6452   0.02895   0.02294  -0.1043  0.1401  1.0000  -3.9005   0.0000   0.0000   0.0000   0.2931
  12.100   1.6473   0.02960   0.02357  -0.1036  0.1361  1.0000  -3.9402   0.0000   0.0000   0.0000   0.2924
  12.200   1.6500   0.03020   0.02417  -0.1029  0.1319  1.0000  -3.9818   0.0000   0.0000   0.0000   0.2917
  12.300   1.6522   0.03085   0.02480  -0.1022  0.1281  1.0000  -4.0219   0.0000   0.0000   0.0000   0.2910
  12.400   1.6544   0.03149   0.02543  -0.1015  0.1241  1.0000  -4.0623   0.0000   0.0000   0.0000   0.2903
  12.500   1.6566   0.03214   0.02607  -0.1009  0.1204  1.0000  -4.1027   0.0000   0.0000   0.0000   0.2896
  12.600   1.6585   0.03282   0.02675  -0.1002  0.1166  1.0000  -4.1421   0.0000   0.0000   0.0000   0.2889
  12.700   1.6608   0.03348   0.02740  -0.0995  0.1131  1.0000  -4.1830   0.0000   0.0000   0.0000   0.2882
  12.800   1.6625   0.03420   0.02810  -0.0989  0.1096  1.0000  -4.2221   0.0000   0.0000   0.0000   0.2875
  12.900   1.6647   0.03488   0.02878  -0.0982  0.1063  1.0000  -4.2629   0.0000   0.0000   0.0000   0.2868
  13.000   1.6665   0.03561   0.02950  -0.0976  0.1029  1.0000  -4.3022   0.0000   0.0000   0.0000   0.2862
  13.100   1.6686   0.03632   0.03021  -0.0970  0.0999  1.0000  -4.3428   0.0000   0.0000   0.0000   0.2855
  13.200   1.6703   0.03706   0.03095  -0.0964  0.0967  1.0000  -4.3824   0.0000   0.0000   0.0000   0.2849
  13.300   1.6722   0.03780   0.03168  -0.0958  0.0939  1.0000  -4.4225   0.0000   0.0000   0.0000   0.2843
  13.400   1.6740   0.03855   0.03243  -0.0952  0.0908  1.0000  -4.4623   0.0000   0.0000   0.0000   0.2836
  13.500   1.6755   0.03932   0.03320  -0.0946  0.0882  1.0000  -4.5012   0.0000   0.0000   0.0000   0.2830
  13.600   1.6774   0.04007   0.03396  -0.0940  0.0853  1.0000  -4.5438   0.0000   0.0000   0.0000   0.2824
  13.700   1.6784   0.04092   0.03479  -0.0934  0.0828  1.0000  -4.5835   0.0000   0.0000   0.0000   0.2818
  13.800   1.6806   0.04165   0.03553  -0.0929  0.0801  1.0000  -4.6281   0.0000   0.0000   0.0000   0.2812
  13.900   1.6816   0.04252   0.03639  -0.0924  0.0777  1.0000  -4.6679   0.0000   0.0000   0.0000   0.2806
  14.000   1.6835   0.04330   0.03718  -0.0919  0.0754  1.0000  -4.7152   0.0000   0.0000   0.0000   0.2800
  14.100   1.6849   0.04413   0.03801  -0.0913  0.0730  1.0000  -4.7626   0.0000   0.0000   0.0000   0.2795
  14.200   1.6858   0.04502   0.03891  -0.0908  0.0710  1.0000  -4.8077   0.0000   0.0000   0.0000   0.2789
  14.300   1.6879   0.04581   0.03970  -0.0904  0.0689  1.0000  -4.8582   0.0000   0.0000   0.0000   0.2784
  14.400   1.6888   0.04671   0.04060  -0.0899  0.0669  1.0000  -4.9039   0.0000   0.0000   0.0000   0.2778
  14.500   1.6900   0.04759   0.04150  -0.0894  0.0652  1.0000  -4.9505   0.0000   0.0000   0.0000   0.2773
  14.600   1.6918   0.04841   0.04233  -0.0890  0.0634  1.0000  -5.0002   0.0000   0.0000   0.0000   0.2767
  14.700   1.6926   0.04934   0.04326  -0.0885  0.0618  1.0000  -5.0457   0.0000   0.0000   0.0000   0.2762
  14.800   1.6932   0.05029   0.04421  -0.0880  0.0603  1.0000  -5.0904   0.0000   0.0000   0.0000   0.2757
  14.900   1.6952   0.05111   0.04506  -0.0876  0.0588  1.0000  -5.1410   0.0000   0.0000   0.0000   0.2752
  15.000   1.6962   0.05204   0.04600  -0.0872  0.0573  1.0000  -5.1878   0.0000   0.0000   0.0000   0.2747
  15.100   1.6966   0.05304   0.04700  -0.0868  0.0560  1.0000  -5.2319   0.0000   0.0000   0.0000   0.2742
  15.200   1.6978   0.05398   0.04796  -0.0864  0.0548  1.0000  -5.2791   0.0000   0.0000   0.0000   0.2737
  15.300   1.6992   0.05488   0.04888  -0.0860  0.0535  1.0000  -5.3282   0.0000   0.0000   0.0000   0.2732
  15.400   1.7001   0.05585   0.04987  -0.0857  0.0522  1.0000  -5.3746   0.0000   0.0000   0.0000   0.2727
  15.500   1.7001   0.05693   0.05095  -0.0853  0.0511  1.0000  -5.4170   0.0000   0.0000   0.0000   0.2723
  15.600   1.7009   0.05793   0.05197  -0.0849  0.0501  1.0000  -5.4631   0.0000   0.0000   0.0000   0.2718
  15.700   1.7024   0.05885   0.05292  -0.0846  0.0489  1.0000  -5.5127   0.0000   0.0000   0.0000   0.2713
  15.800   1.7030   0.05987   0.05396  -0.0843  0.0479  1.0000  -5.5584   0.0000   0.0000   0.0000   0.2709
  15.900   1.7031   0.06096   0.05506  -0.0840  0.0469  1.0000  -5.6016   0.0000   0.0000   0.0000   0.2705
  16.100   1.7037   0.06310   0.05724  -0.0834  0.0450  1.0000  -5.6899   0.0000   0.0000   0.0000   0.2696
  16.200   1.7046   0.06410   0.05826  -0.0831  0.0440  1.0000  -5.7373   0.0000   0.0000   0.0000   0.2692
  16.300   1.7047   0.06521   0.05939  -0.0828  0.0431  1.0000  -5.7808   0.0000   0.0000   0.0000   0.2688
  16.400   1.7041   0.06639   0.06059  -0.0826  0.0422  1.0000  -5.8214   0.0000   0.0000   0.0000   0.2684
  16.500   1.7028   0.06768   0.06189  -0.0823  0.0414  1.0000  -5.8583   0.0000   0.0000   0.0000   0.2680
  16.600   1.7042   0.06867   0.06292  -0.0821  0.0405  1.0000  -5.9075   0.0000   0.0000   0.0000   0.2676
  16.700   1.7047   0.06975   0.06402  -0.0819  0.0396  1.0000  -5.9535   0.0000   0.0000   0.0000   0.2673
  16.800   1.7044   0.07095   0.06524  -0.0817  0.0388  1.0000  -5.9953   0.0000   0.0000   0.0000   0.2669
  16.900   1.7035   0.07222   0.06652  -0.0815  0.0380  1.0000  -6.0341   0.0000   0.0000   0.0000   0.2666
  17.000   1.7018   0.07360   0.06792  -0.0813  0.0373  1.0000  -6.0688   0.0000   0.0000   0.0000   0.2663
  17.100   1.7021   0.07474   0.06909  -0.0811  0.0366  1.0000  -6.1133   0.0000   0.0000   0.0000   0.2659
  17.200   1.7025   0.07588   0.07026  -0.0810  0.0358  1.0000  -6.1584   0.0000   0.0000   0.0000   0.2656
  17.300   1.7019   0.07713   0.07154  -0.0809  0.0351  1.0000  -6.1988   0.0000   0.0000   0.0000   0.2653
  17.400   1.7008   0.07845   0.07288  -0.0807  0.0344  1.0000  -6.2367   0.0000   0.0000   0.0000   0.2650
  17.500   1.6989   0.07987   0.07432  -0.0806  0.0338  1.0000  -6.2704   0.0000   0.0000   0.0000   0.2647
  17.700   1.6965   0.08256   0.07706  -0.0804  0.0325  1.0000  -6.3438   0.0000   0.0000   0.0000   0.2642
  17.800   1.6961   0.08383   0.07837  -0.0804  0.0319  1.0000  -6.3848   0.0000   0.0000   0.0000   0.2639
  17.900   1.6952   0.08515   0.07972  -0.0803  0.0313  1.0000  -6.4234   0.0000   0.0000   0.0000   0.2636
  18.000   1.6936   0.08659   0.08118  -0.0803  0.0307  1.0000  -6.4581   0.0000   0.0000   0.0000   0.2634
  18.100   1.6914   0.08810   0.08270  -0.0803  0.0301  1.0000  -6.4901   0.0000   0.0000   0.0000   0.2632
  18.200   1.6884   0.08973   0.08435  -0.0803  0.0296  1.0000  -6.5172   0.0000   0.0000   0.0000   0.2631
  18.300   1.6863   0.09126   0.08591  -0.0803  0.0291  1.0000  -6.5484   0.0000   0.0000   0.0000   0.2629
  18.400   1.6861   0.09253   0.08722  -0.0804  0.0286  1.0000  -6.5902   0.0000   0.0000   0.0000   0.2626
  18.500   1.6850   0.09392   0.08865  -0.0804  0.0281  1.0000  -6.6271   0.0000   0.0000   0.0000   0.2625
  18.600   1.6836   0.09536   0.09012  -0.0805  0.0276  1.0000  -6.6623   0.0000   0.0000   0.0000   0.2623
  18.700   1.6815   0.09691   0.09170  -0.0806  0.0271  1.0000  -6.6936   0.0000   0.0000   0.0000   0.2621
  18.800   1.6791   0.09851   0.09332  -0.0807  0.0267  1.0000  -6.7231   0.0000   0.0000   0.0000   0.2620
  18.900   1.6759   0.10022   0.09506  -0.0809  0.0263  1.0000  -6.7481   0.0000   0.0000   0.0000   0.2620
  19.000   1.6720   0.10202   0.09688  -0.0811  0.0259  1.0000  -6.7687   0.0000   0.0000   0.0000   0.2619
  19.100   1.6692   0.10369   0.09859  -0.0813  0.0256  1.0000  -6.7944   0.0000   0.0000   0.0000   0.2619
  19.200   1.6682   0.10508   0.10002  -0.0815  0.0252  1.0000  -6.8310   0.0000   0.0000   0.0000   0.2617
  19.300   1.6668   0.10657   0.10154  -0.0817  0.0249  1.0000  -6.8646   0.0000   0.0000   0.0000   0.2616
  19.400   1.6649   0.10811   0.10312  -0.0819  0.0245  1.0000  -6.8958   0.0000   0.0000   0.0000   0.2615
  19.500   1.6628   0.10970   0.10474  -0.0821  0.0242  1.0000  -6.9255   0.0000   0.0000   0.0000   0.2615
  19.600   1.6602   0.11137   0.10645  -0.0824  0.0238  1.0000  -6.9522   0.0000   0.0000   0.0000   0.2615
  19.700   1.6575   0.11306   0.10816  -0.0827  0.0235  1.0000  -6.9784   0.0000   0.0000   0.0000   0.2615
  19.800   1.6543   0.11485   0.10998  -0.0831  0.0233  1.0000  -7.0013   0.0000   0.0000   0.0000   0.2615
  19.900   1.6508   0.11667   0.11183  -0.0835  0.0230  1.0000  -7.0244   0.0000   0.0000   0.0000   0.2616
  20.000   1.6466   0.11862   0.11381  -0.0839  0.0227  1.0000  -7.0420   0.0000   0.0000   0.0000   0.2617


