xflr5 v6.57

 Calculated polar for: reaf

 1 1 Reynolds number fixed          Mach number fixed         

 xtrf =   1.000 (top)        1.000 (bottom)
 Mach =   0.000     Re =     0.360 e 6     Ncrit =   9.000

  alpha     CL        CD       CDp       Cm    Top Xtr Bot Xtr   Cpmin    Chinge    XCp    
 ------- -------- --------- --------- -------- ------- ------- -------- --------- ---------
  -9.300  -0.2833   0.04519   0.04163  -0.1271  0.8464  0.0337  -4.1149   0.0000   0.0000   0.0000  -0.2260
  -9.200  -0.2864   0.04219   0.03850  -0.1306  0.8439  0.0336  -4.1875   0.0000   0.0000   0.0000  -0.2331
  -9.100  -0.2900   0.03901   0.03512  -0.1338  0.8417  0.0335  -4.2756   0.0000   0.0000   0.0000  -0.2377
  -9.000  -0.2931   0.03575   0.03157  -0.1364  0.8399  0.0334  -4.3732   0.0000   0.0000   0.0000  -0.2414
  -8.900  -0.2944   0.03270   0.02813  -0.1384  0.8384  0.0336  -4.4656   0.0000   0.0000   0.0000  -0.2458
  -8.800  -0.2923   0.03042   0.02546  -0.1397  0.8366  0.0338  -4.5217   0.0000   0.0000   0.0000  -0.2538
  -8.700  -0.2867   0.02892   0.02378  -0.1403  0.8348  0.0341  -4.5110   0.0000   0.0000   0.0000  -0.2655
  -8.600  -0.2780   0.02828   0.02314  -0.1405  0.8333  0.0344  -4.4423   0.0000   0.0000   0.0000  -0.2820
  -8.500  -0.2679   0.02807   0.02296  -0.1406  0.8320  0.0347  -4.3540   0.0000   0.0000   0.0000  -0.3016
  -8.400  -0.2573   0.02803   0.02297  -0.1406  0.8309  0.0349  -4.2585   0.0000   0.0000   0.0000  -0.3238
  -8.300  -0.2476   0.02768   0.02259  -0.1407  0.8298  0.0352  -4.1845   0.0000   0.0000   0.0000  -0.3463
  -8.200  -0.2387   0.02701   0.02182  -0.1409  0.8288  0.0355  -4.1315   0.0000   0.0000   0.0000  -0.3691
  -8.100  -0.2302   0.02617   0.02088  -0.1412  0.8270  0.0358  -4.0905   0.0000   0.0000   0.0000  -0.3927
  -8.000  -0.2216   0.02534   0.01992  -0.1414  0.8254  0.0360  -4.0497   0.0000   0.0000   0.0000  -0.4187
  -7.900  -0.2126   0.02453   0.01897  -0.1417  0.8239  0.0363  -4.0080   0.0000   0.0000   0.0000  -0.4474
  -7.800  -0.2034   0.02375   0.01804  -0.1418  0.8226  0.0367  -3.9659   0.0000   0.0000   0.0000  -0.4793
  -7.700  -0.1940   0.02301   0.01714  -0.1420  0.8215  0.0370  -3.9312   0.0000   0.0000   0.0000  -0.5151
  -7.600  -0.1843   0.02232   0.01628  -0.1421  0.8204  0.0374  -3.8948   0.0000   0.0000   0.0000  -0.5556
  -7.500  -0.1743   0.02171   0.01549  -0.1422  0.8194  0.0378  -3.8559   0.0000   0.0000   0.0000  -0.6017
  -7.400  -0.1643   0.02126   0.01487  -0.1423  0.8177  0.0382  -3.8135   0.0000   0.0000   0.0000  -0.6536
  -7.300  -0.1545   0.02063   0.01419  -0.1424  0.8162  0.0387  -3.7616   0.0000   0.0000   0.0000  -0.7107
  -7.200  -0.1442   0.02028   0.01385  -0.1424  0.8148  0.0391  -3.6922   0.0000   0.0000   0.0000  -0.7793
  -7.100  -0.1336   0.02003   0.01360  -0.1425  0.8136  0.0395  -3.6209   0.0000   0.0000   0.0000  -0.8610
  -7.000  -0.1228   0.01980   0.01336  -0.1426  0.8125  0.0400  -3.5512   0.0000   0.0000   0.0000  -0.9582
  -6.900  -0.1120   0.01954   0.01306  -0.1426  0.8115  0.0405  -3.4854   0.0000   0.0000   0.0000  -1.0745
  -6.800  -0.1011   0.01924   0.01268  -0.1427  0.8106  0.0411  -3.4247   0.0000   0.0000   0.0000  -1.2160
  -6.700  -0.0906   0.01891   0.01228  -0.1427  0.8091  0.0416  -3.3688   0.0000   0.0000   0.0000  -1.3859
  -6.600  -0.0800   0.01857   0.01187  -0.1427  0.8075  0.0421  -3.3150   0.0000   0.0000   0.0000  -1.6016
  -6.500  -0.0692   0.01827   0.01146  -0.1427  0.8060  0.0426  -3.2608   0.0000   0.0000   0.0000  -1.8898
  -6.400  -0.0583   0.01798   0.01106  -0.1427  0.8048  0.0431  -3.2055   0.0000   0.0000   0.0000  -2.2902
  -6.300  -0.0478   0.01752   0.01062  -0.1428  0.8036  0.0436  -3.1449   0.0000   0.0000   0.0000  -2.8443
  -6.200  -0.0369   0.01726   0.01037  -0.1428  0.8026  0.0442  -3.0783   0.0000   0.0000   0.0000  -3.7560
  -6.100  -0.0258   0.01705   0.01014  -0.1429  0.8016  0.0447  -3.0181   0.0000   0.0000   0.0000  -5.4711
  -6.000  -0.0148   0.01686   0.00991  -0.1429  0.8006  0.0454  -2.9598   0.0000   0.0000   0.0000  -9.7668
  -5.900  -0.0041   0.01668   0.00973  -0.1429  0.7989  0.0462  -2.9038   0.0000   0.0000   0.0000  -36.1110
  -5.800   0.0069   0.01650   0.00950  -0.1429  0.7974  0.0470  -2.8494   0.0000   0.0000   0.0000  21.6939
  -5.700   0.0181   0.01636   0.00927  -0.1430  0.7960  0.0479  -2.7962   0.0000   0.0000   0.0000   8.4045
  -5.600   0.0288   0.01602   0.00894  -0.1430  0.7948  0.0486  -2.7423   0.0000   0.0000   0.0000   5.3698
  -5.500   0.0398   0.01580   0.00874  -0.1430  0.7937  0.0494  -2.6820   0.0000   0.0000   0.0000   3.9552
  -5.400   0.0510   0.01564   0.00857  -0.1431  0.7927  0.0503  -2.6225   0.0000   0.0000   0.0000   3.1398
  -5.300   0.0623   0.01547   0.00837  -0.1431  0.7918  0.0512  -2.5654   0.0000   0.0000   0.0000   2.6140
  -5.200   0.0734   0.01531   0.00818  -0.1431  0.7905  0.0521  -2.5113   0.0000   0.0000   0.0000   2.2578
  -5.100   0.0843   0.01518   0.00801  -0.1431  0.7888  0.0530  -2.4587   0.0000   0.0000   0.0000   1.9960
  -5.000   0.0950   0.01493   0.00776  -0.1431  0.7873  0.0539  -2.4060   0.0000   0.0000   0.0000   1.7980
  -4.900   0.1060   0.01474   0.00760  -0.1432  0.7860  0.0549  -2.3482   0.0000   0.0000   0.0000   1.6379
  -4.800   0.1172   0.01461   0.00747  -0.1432  0.7848  0.0561  -2.2899   0.0000   0.0000   0.0000   1.5046
  -4.700   0.1286   0.01448   0.00732  -0.1433  0.7837  0.0574  -2.2340   0.0000   0.0000   0.0000   1.3932
  -4.600   0.1402   0.01438   0.00715  -0.1433  0.7827  0.0588  -2.1847   0.0000   0.0000   0.0000   1.2983
  -4.500   0.1513   0.01415   0.00694  -0.1434  0.7819  0.0601  -2.1345   0.0000   0.0000   0.0000   1.2211
  -4.400   0.1620   0.01403   0.00685  -0.1434  0.7802  0.0614  -2.0835   0.0000   0.0000   0.0000   1.1563
  -4.300   0.1730   0.01393   0.00675  -0.1434  0.7786  0.0629  -2.0341   0.0000   0.0000   0.0000   1.0985
  -4.200   0.1842   0.01383   0.00662  -0.1434  0.7771  0.0645  -1.9861   0.0000   0.0000   0.0000   1.0463
  -4.100   0.1953   0.01363   0.00645  -0.1435  0.7758  0.0661  -1.9371   0.0000   0.0000   0.0000   1.0011
  -4.000   0.2066   0.01351   0.00634  -0.1435  0.7746  0.0679  -1.8856   0.0000   0.0000   0.0000   0.9598
  -3.900   0.2182   0.01342   0.00621  -0.1436  0.7736  0.0700  -1.8356   0.0000   0.0000   0.0000   0.9221
  -3.800   0.2296   0.01326   0.00605  -0.1437  0.7726  0.0721  -1.7864   0.0000   0.0000   0.0000   0.8885
  -3.700   0.2410   0.01316   0.00595  -0.1437  0.7716  0.0744  -1.7358   0.0000   0.0000   0.0000   0.8584
  -3.600   0.2518   0.01309   0.00589  -0.1437  0.7697  0.0770  -1.6887   0.0000   0.0000   0.0000   0.8317
  -3.500   0.2628   0.01295   0.00578  -0.1438  0.7682  0.0795  -1.6408   0.0000   0.0000   0.0000   0.8073
  -3.400   0.2741   0.01286   0.00570  -0.1438  0.7667  0.0827  -1.5920   0.0000   0.0000   0.0000   0.7842
  -3.300   0.2855   0.01274   0.00558  -0.1439  0.7655  0.0861  -1.5437   0.0000   0.0000   0.0000   0.7628
  -3.200   0.2970   0.01264   0.00548  -0.1440  0.7643  0.0902  -1.4949   0.0000   0.0000   0.0000   0.7429
  -3.100   0.3086   0.01252   0.00537  -0.1441  0.7633  0.0946  -1.4498   0.0000   0.0000   0.0000   0.7244
  -3.000   0.3203   0.01241   0.00526  -0.1442  0.7624  0.0999  -1.4059   0.0000   0.0000   0.0000   0.7071
  -2.900   0.3313   0.01234   0.00521  -0.1442  0.7607  0.1060  -1.3633   0.0000   0.0000   0.0000   0.6918
  -2.800   0.3422   0.01224   0.00517  -0.1442  0.7590  0.1129  -1.3206   0.0000   0.0000   0.0000   0.6775
  -2.700   0.3534   0.01214   0.00510  -0.1443  0.7574  0.1214  -1.2777   0.0000   0.0000   0.0000   0.6638
  -2.600   0.3648   0.01203   0.00503  -0.1444  0.7560  0.1312  -1.2344   0.0000   0.0000   0.0000   0.6509
  -2.500   0.3763   0.01192   0.00497  -0.1445  0.7548  0.1426  -1.1909   0.0000   0.0000   0.0000   0.6387
  -2.400   0.3879   0.01182   0.00490  -0.1446  0.7537  0.1558  -1.1473   0.0000   0.0000   0.0000   0.6271
  -2.300   0.3996   0.01172   0.00483  -0.1447  0.7527  0.1700  -1.1035   0.0000   0.0000   0.0000   0.6161
  -2.200   0.4109   0.01165   0.00480  -0.1448  0.7513  0.1852  -1.0609   0.0000   0.0000   0.0000   0.6061
  -2.100   0.4217   0.01157   0.00480  -0.1448  0.7494  0.2002  -1.0195   0.0000   0.0000   0.0000   0.5968
  -1.900   0.4442   0.01141   0.00475  -0.1450  0.7463  0.2337  -0.9395   0.0000   0.0000   0.0000   0.5791
  -1.800   0.4557   0.01133   0.00471  -0.1451  0.7450  0.2519  -0.9004   0.0000   0.0000   0.0000   0.5708
  -1.700   0.4673   0.01124   0.00466  -0.1452  0.7438  0.2711  -0.8615   0.0000   0.0000   0.0000   0.5628
  -1.600   0.4790   0.01115   0.00462  -0.1453  0.7428  0.2917  -0.8227   0.0000   0.0000   0.0000   0.5553
  -1.500   0.4903   0.01108   0.00461  -0.1454  0.7414  0.3137  -0.8248   0.0000   0.0000   0.0000   0.5482
  -1.400   0.5010   0.01102   0.00463  -0.1454  0.7394  0.3367  -0.8317   0.0000   0.0000   0.0000   0.5416
  -1.300   0.5121   0.01094   0.00463  -0.1455  0.7377  0.3614  -0.8390   0.0000   0.0000   0.0000   0.5352
  -1.200   0.5234   0.01085   0.00462  -0.1455  0.7362  0.3880  -0.8464   0.0000   0.0000   0.0000   0.5290
  -1.100   0.5348   0.01076   0.00460  -0.1456  0.7348  0.4167  -0.8540   0.0000   0.0000   0.0000   0.5230
  -0.900   0.5579   0.01057   0.00456  -0.1458  0.7325  0.4775  -0.8700   0.0000   0.0000   0.0000   0.5116
  -0.800   0.5687   0.01050   0.00459  -0.1458  0.7309  0.5087  -0.8775   0.0000   0.0000   0.0000   0.5064
  -0.700   0.5792   0.01044   0.00463  -0.1457  0.7289  0.5394  -0.8849   0.0000   0.0000   0.0000   0.5014
  -0.600   0.5900   0.01037   0.00465  -0.1456  0.7271  0.5696  -0.8925   0.0000   0.0000   0.0000   0.4965
  -0.500   0.6010   0.01029   0.00466  -0.1456  0.7256  0.5997  -0.9003   0.0000   0.0000   0.0000   0.4917
  -0.400   0.6120   0.01022   0.00466  -0.1455  0.7242  0.6294  -0.9084   0.0000   0.0000   0.0000   0.4870
  -0.300   0.6231   0.01015   0.00465  -0.1454  0.7230  0.6585  -0.9166   0.0000   0.0000   0.0000   0.4825
  -0.100   0.6442   0.01008   0.00471  -0.1450  0.7196  0.7086  -0.9322   0.0000   0.0000   0.0000   0.4739
   0.000   0.6544   0.01005   0.00474  -0.1448  0.7176  0.7312  -0.9400   0.0000   0.0000   0.0000   0.4699
   0.100   0.6648   0.01001   0.00476  -0.1445  0.7159  0.7522  -0.9483   0.0000   0.0000   0.0000   0.4659
   0.200   0.6752   0.00997   0.00475  -0.1443  0.7144  0.7726  -0.9567   0.0000   0.0000   0.0000   0.4620
   0.300   0.6858   0.00992   0.00473  -0.1440  0.7131  0.7922  -0.9653   0.0000   0.0000   0.0000   0.4581
   0.400   0.6963   0.00988   0.00471  -0.1437  0.7119  0.8116  -0.9739   0.0000   0.0000   0.0000   0.4544
   0.500   0.7055   0.00986   0.00475  -0.1432  0.7099  0.8305  -0.9815   0.0000   0.0000   0.0000   0.4509
   0.600   0.7145   0.00983   0.00478  -0.1427  0.7077  0.8498  -0.9891   0.0000   0.0000   0.0000   0.4474
   0.700   0.7234   0.00978   0.00477  -0.1420  0.7059  0.8701  -0.9969   0.0000   0.0000   0.0000   0.4439
   0.800   0.7323   0.00972   0.00474  -0.1414  0.7043  0.8928  -1.0049   0.0000   0.0000   0.0000   0.4404
   0.900   0.7421   0.00965   0.00469  -0.1409  0.7029  0.9192  -1.0136   0.0000   0.0000   0.0000   0.4370
   1.000   0.7568   0.00958   0.00461  -0.1414  0.7016  0.9532  -1.0251   0.0000   0.0000   0.0000   0.4340
   1.100   0.7733   0.00956   0.00460  -0.1426  0.6994  1.0000  -1.0374   0.0000   0.0000   0.0000   0.4314
   1.200   0.7844   0.00959   0.00461  -0.1427  0.6971  1.0000  -1.0469   0.0000   0.0000   0.0000   0.4287
   1.300   0.7960   0.00960   0.00461  -0.1428  0.6952  1.0000  -1.0570   0.0000   0.0000   0.0000   0.4260
   1.400   0.8079   0.00961   0.00458  -0.1429  0.6934  1.0000  -1.0676   0.0000   0.0000   0.0000   0.4234
   1.500   0.8200   0.00962   0.00455  -0.1431  0.6919  1.0000  -1.0785   0.0000   0.0000   0.0000   0.4209
   1.600   0.8318   0.00964   0.00454  -0.1433  0.6902  1.0000  -1.0891   0.0000   0.0000   0.0000   0.4185
   1.700   0.8424   0.00968   0.00459  -0.1432  0.6877  1.0000  -1.0988   0.0000   0.0000   0.0000   0.4161
   1.800   0.8536   0.00970   0.00460  -0.1433  0.6855  1.0000  -1.1091   0.0000   0.0000   0.0000   0.4138
   1.900   0.8652   0.00972   0.00459  -0.1434  0.6836  1.0000  -1.1202   0.0000   0.0000   0.0000   0.4115
   2.000   0.8771   0.00973   0.00456  -0.1435  0.6820  1.0000  -1.1316   0.0000   0.0000   0.0000   0.4093
   2.100   0.8892   0.00975   0.00454  -0.1437  0.6804  1.0000  -1.1431   0.0000   0.0000   0.0000   0.4071
   2.200   0.8995   0.00979   0.00460  -0.1436  0.6777  1.0000  -1.1533   0.0000   0.0000   0.0000   0.4050
   2.300   0.9105   0.00981   0.00462  -0.1436  0.6753  1.0000  -1.1642   0.0000   0.0000   0.0000   0.4030
   2.400   0.9220   0.00983   0.00461  -0.1437  0.6732  1.0000  -1.1760   0.0000   0.0000   0.0000   0.4009
   2.500   0.9338   0.00984   0.00459  -0.1438  0.6713  1.0000  -1.1880   0.0000   0.0000   0.0000   0.3990
   2.600   0.9453   0.00986   0.00459  -0.1438  0.6694  1.0000  -1.2003   0.0000   0.0000   0.0000   0.3970
   2.700   0.9556   0.00990   0.00465  -0.1437  0.6666  1.0000  -1.2116   0.0000   0.0000   0.0000   0.3951
   2.800   0.9667   0.00993   0.00467  -0.1437  0.6641  1.0000  -1.2234   0.0000   0.0000   0.0000   0.3933
   2.900   0.9781   0.00995   0.00466  -0.1438  0.6620  1.0000  -1.2357   0.0000   0.0000   0.0000   0.3915
   3.000   0.9899   0.00996   0.00464  -0.1439  0.6601  1.0000  -1.2484   0.0000   0.0000   0.0000   0.3897
   3.100   1.0005   0.01000   0.00469  -0.1438  0.6575  1.0000  -1.2607   0.0000   0.0000   0.0000   0.3880
   3.200   1.0112   0.01004   0.00473  -0.1438  0.6547  1.0000  -1.2730   0.0000   0.0000   0.0000   0.3862
   3.300   1.0223   0.01006   0.00474  -0.1438  0.6523  1.0000  -1.2858   0.0000   0.0000   0.0000   0.3846
   3.400   1.0338   0.01008   0.00473  -0.1439  0.6501  1.0000  -1.2992   0.0000   0.0000   0.0000   0.3829
   3.500   1.0448   0.01012   0.00476  -0.1438  0.6477  1.0000  -1.3123   0.0000   0.0000   0.0000   0.3813
   3.600   1.0552   0.01016   0.00481  -0.1437  0.6446  1.0000  -1.3252   0.0000   0.0000   0.0000   0.3797
   3.700   1.0661   0.01018   0.00483  -0.1437  0.6419  1.0000  -1.3388   0.0000   0.0000   0.0000   0.3782
   3.800   1.0775   0.01021   0.00483  -0.1437  0.6396  1.0000  -1.3531   0.0000   0.0000   0.0000   0.3766
   3.900   1.0883   0.01025   0.00486  -0.1437  0.6369  1.0000  -1.3675   0.0000   0.0000   0.0000   0.3752
   4.000   1.0986   0.01029   0.00492  -0.1436  0.6337  1.0000  -1.3818   0.0000   0.0000   0.0000   0.3737
   4.100   1.1095   0.01032   0.00494  -0.1435  0.6309  1.0000  -1.3969   0.0000   0.0000   0.0000   0.3722
   4.200   1.1207   0.01036   0.00495  -0.1436  0.6284  1.0000  -1.4126   0.0000   0.0000   0.0000   0.3708
   4.300   1.1311   0.01040   0.00501  -0.1435  0.6252  1.0000  -1.4276   0.0000   0.0000   0.0000   0.3694
   4.400   1.1414   0.01045   0.00506  -0.1433  0.6219  1.0000  -1.4431   0.0000   0.0000   0.0000   0.3680
   4.500   1.1523   0.01048   0.00508  -0.1433  0.6190  1.0000  -1.4590   0.0000   0.0000   0.0000   0.3666
   4.600   1.1632   0.01053   0.00510  -0.1433  0.6162  1.0000  -1.4753   0.0000   0.0000   0.0000   0.3653
   4.700   1.1731   0.01058   0.00518  -0.1431  0.6124  1.0000  -1.4910   0.0000   0.0000   0.0000   0.3640
   4.800   1.1836   0.01062   0.00521  -0.1430  0.6091  1.0000  -1.5073   0.0000   0.0000   0.0000   0.3627
   5.000   1.2044   0.01073   0.00531  -0.1427  0.6022  1.0000  -1.5404   0.0000   0.0000   0.0000   0.3601
   5.100   1.2146   0.01078   0.00536  -0.1426  0.5986  1.0000  -1.5573   0.0000   0.0000   0.0000   0.3588
   5.300   1.2350   0.01090   0.00547  -0.1423  0.5912  1.0000  -1.5939   0.0000   0.0000   0.0000   0.3564
   5.400   1.2451   0.01096   0.00552  -0.1422  0.5874  1.0000  -1.6131   0.0000   0.0000   0.0000   0.3552
   5.500   1.2555   0.01102   0.00556  -0.1420  0.5839  1.0000  -1.6328   0.0000   0.0000   0.0000   0.3540
   5.600   1.2651   0.01109   0.00565  -0.1418  0.5794  1.0000  -1.6521   0.0000   0.0000   0.0000   0.3528
   5.700   1.2752   0.01116   0.00570  -0.1416  0.5756  1.0000  -1.6721   0.0000   0.0000   0.0000   0.3516
   5.800   1.2850   0.01123   0.00578  -0.1414  0.5715  1.0000  -1.6921   0.0000   0.0000   0.0000   0.3505
   5.900   1.2947   0.01131   0.00586  -0.1412  0.5671  1.0000  -1.7124   0.0000   0.0000   0.0000   0.3493
   6.000   1.3046   0.01139   0.00591  -0.1410  0.5634  1.0000  -1.7332   0.0000   0.0000   0.0000   0.3482
   6.100   1.3140   0.01147   0.00601  -0.1407  0.5586  1.0000  -1.7538   0.0000   0.0000   0.0000   0.3471
   6.200   1.3235   0.01156   0.00608  -0.1405  0.5542  1.0000  -1.7753   0.0000   0.0000   0.0000   0.3460
   6.300   1.3329   0.01165   0.00617  -0.1402  0.5497  1.0000  -1.7990   0.0000   0.0000   0.0000   0.3449
   6.400   1.3421   0.01174   0.00626  -0.1399  0.5448  1.0000  -1.8244   0.0000   0.0000   0.0000   0.3438
   6.500   1.3514   0.01185   0.00635  -0.1396  0.5403  1.0000  -1.8501   0.0000   0.0000   0.0000   0.3427
   6.600   1.3603   0.01194   0.00645  -0.1393  0.5349  1.0000  -1.8760   0.0000   0.0000   0.0000   0.3416
   6.700   1.3692   0.01206   0.00654  -0.1389  0.5302  1.0000  -1.9031   0.0000   0.0000   0.0000   0.3405
   6.800   1.3779   0.01217   0.00666  -0.1385  0.5246  1.0000  -1.9317   0.0000   0.0000   0.0000   0.3395
   7.000   1.3950   0.01241   0.00688  -0.1377  0.5139  1.0000  -1.9902   0.0000   0.0000   0.0000   0.3373
   7.200   1.4115   0.01268   0.00712  -0.1368  0.5030  1.0000  -2.0499   0.0000   0.0000   0.0000   0.3352
   7.400   1.4273   0.01296   0.00740  -0.1358  0.4919  1.0000  -2.1100   0.0000   0.0000   0.0000   0.3331
   7.500   1.4348   0.01313   0.00753  -0.1353  0.4866  1.0000  -2.1404   0.0000   0.0000   0.0000   0.3321
   7.600   1.4424   0.01328   0.00768  -0.1347  0.4804  1.0000  -2.1726   0.0000   0.0000   0.0000   0.3311
   7.700   1.4494   0.01346   0.00784  -0.1341  0.4748  1.0000  -2.2039   0.0000   0.0000   0.0000   0.3300
   7.800   1.4564   0.01363   0.00800  -0.1335  0.4685  1.0000  -2.2353   0.0000   0.0000   0.0000   0.3290
   7.900   1.4629   0.01382   0.00817  -0.1327  0.4624  1.0000  -2.2659   0.0000   0.0000   0.0000   0.3279
   8.000   1.4683   0.01401   0.00834  -0.1318  0.4559  1.0000  -2.2950   0.0000   0.0000   0.0000   0.3268
   8.100   1.4738   0.01421   0.00853  -0.1309  0.4494  1.0000  -2.3250   0.0000   0.0000   0.0000   0.3257
   8.200   1.4786   0.01445   0.00874  -0.1299  0.4432  1.0000  -2.3545   0.0000   0.0000   0.0000   0.3245
   8.300   1.4841   0.01466   0.00895  -0.1291  0.4364  1.0000  -2.3854   0.0000   0.0000   0.0000   0.3235
   8.400   1.4890   0.01491   0.00917  -0.1281  0.4301  1.0000  -2.4152   0.0000   0.0000   0.0000   0.3224
   8.500   1.4939   0.01516   0.00941  -0.1272  0.4236  1.0000  -2.4451   0.0000   0.0000   0.0000   0.3214
   8.600   1.4989   0.01542   0.00966  -0.1264  0.4173  1.0000  -2.4753   0.0000   0.0000   0.0000   0.3203
   8.700   1.5032   0.01572   0.00993  -0.1254  0.4113  1.0000  -2.5041   0.0000   0.0000   0.0000   0.3193
   8.800   1.5083   0.01599   0.01019  -0.1246  0.4048  1.0000  -2.5381   0.0000   0.0000   0.0000   0.3183
   8.900   1.5125   0.01631   0.01049  -0.1236  0.3988  1.0000  -2.5761   0.0000   0.0000   0.0000   0.3173
   9.000   1.5170   0.01662   0.01079  -0.1228  0.3922  1.0000  -2.6152   0.0000   0.0000   0.0000   0.3163
   9.100   1.5213   0.01695   0.01111  -0.1219  0.3860  1.0000  -2.6539   0.0000   0.0000   0.0000   0.3153
   9.200   1.5250   0.01732   0.01145  -0.1210  0.3798  1.0000  -2.6913   0.0000   0.0000   0.0000   0.3143
   9.300   1.5295   0.01766   0.01179  -0.1202  0.3733  1.0000  -2.7308   0.0000   0.0000   0.0000   0.3134
   9.400   1.5330   0.01806   0.01216  -0.1192  0.3673  1.0000  -2.7679   0.0000   0.0000   0.0000   0.3124
   9.500   1.5372   0.01843   0.01252  -0.1184  0.3608  1.0000  -2.8070   0.0000   0.0000   0.0000   0.3115
   9.600   1.5410   0.01882   0.01290  -0.1176  0.3547  1.0000  -2.8453   0.0000   0.0000   0.0000   0.3106
   9.700   1.5444   0.01925   0.01331  -0.1167  0.3486  1.0000  -2.8826   0.0000   0.0000   0.0000   0.3097
   9.800   1.5485   0.01965   0.01371  -0.1159  0.3423  1.0000  -2.9218   0.0000   0.0000   0.0000   0.3088
   9.900   1.5515   0.02013   0.01415  -0.1150  0.3365  1.0000  -2.9582   0.0000   0.0000   0.0000   0.3079
  10.000   1.5554   0.02055   0.01457  -0.1143  0.3301  1.0000  -2.9973   0.0000   0.0000   0.0000   0.3070
  10.100   1.5587   0.02102   0.01502  -0.1135  0.3241  1.0000  -3.0348   0.0000   0.0000   0.0000   0.3061
  10.200   1.5617   0.02151   0.01550  -0.1126  0.3180  1.0000  -3.0716   0.0000   0.0000   0.0000   0.3053
  10.300   1.5652   0.02198   0.01596  -0.1119  0.3118  1.0000  -3.1101   0.0000   0.0000   0.0000   0.3044
  10.400   1.5675   0.02252   0.01648  -0.1110  0.3061  1.0000  -3.1454   0.0000   0.0000   0.0000   0.3036
  10.500   1.5711   0.02301   0.01696  -0.1102  0.2997  1.0000  -3.1841   0.0000   0.0000   0.0000   0.3028
  10.600   1.5738   0.02354   0.01748  -0.1094  0.2939  1.0000  -3.2207   0.0000   0.0000   0.0000   0.3019
  10.700   1.5763   0.02410   0.01801  -0.1086  0.2879  1.0000  -3.2568   0.0000   0.0000   0.0000   0.3011
  10.800   1.5794   0.02462   0.01853  -0.1079  0.2820  1.0000  -3.2947   0.0000   0.0000   0.0000   0.3003
  10.900   1.5812   0.02523   0.01912  -0.1070  0.2764  1.0000  -3.3295   0.0000   0.0000   0.0000   0.2995
  11.000   1.5844   0.02577   0.01965  -0.1063  0.2703  1.0000  -3.3701   0.0000   0.0000   0.0000   0.2987
  11.100   1.5866   0.02637   0.02024  -0.1055  0.2646  1.0000  -3.4081   0.0000   0.0000   0.0000   0.2979
  11.200   1.5887   0.02698   0.02083  -0.1047  0.2589  1.0000  -3.4457   0.0000   0.0000   0.0000   0.2971
  11.300   1.5913   0.02757   0.02142  -0.1040  0.2532  1.0000  -3.4850   0.0000   0.0000   0.0000   0.2964
  11.500   1.5954   0.02883   0.02265  -0.1024  0.2420  1.0000  -3.5606   0.0000   0.0000   0.0000   0.2949
  11.600   1.5970   0.02950   0.02331  -0.1016  0.2366  1.0000  -3.5973   0.0000   0.0000   0.0000   0.2941
  11.700   1.5987   0.03017   0.02397  -0.1009  0.2309  1.0000  -3.6343   0.0000   0.0000   0.0000   0.2934
  11.800   1.6006   0.03083   0.02462  -0.1002  0.2252  1.0000  -3.6720   0.0000   0.0000   0.0000   0.2926
  11.900   1.6013   0.03159   0.02535  -0.0993  0.2199  1.0000  -3.7060   0.0000   0.0000   0.0000   0.2919
  12.000   1.6032   0.03226   0.02601  -0.0986  0.2140  1.0000  -3.7440   0.0000   0.0000   0.0000   0.2912
  12.100   1.6043   0.03299   0.02673  -0.0979  0.2085  1.0000  -3.7794   0.0000   0.0000   0.0000   0.2905
  12.200   1.6049   0.03378   0.02750  -0.0971  0.2030  1.0000  -3.8134   0.0000   0.0000   0.0000   0.2897
  12.300   1.6065   0.03450   0.02821  -0.0964  0.1972  1.0000  -3.8505   0.0000   0.0000   0.0000   0.2891
  12.400   1.6072   0.03530   0.02899  -0.0957  0.1918  1.0000  -3.8850   0.0000   0.0000   0.0000   0.2884
  12.500   1.6080   0.03610   0.02978  -0.0950  0.1864  1.0000  -3.9197   0.0000   0.0000   0.0000   0.2877
  12.600   1.6093   0.03687   0.03055  -0.0943  0.1810  1.0000  -3.9561   0.0000   0.0000   0.0000   0.2870
  12.700   1.6096   0.03774   0.03139  -0.0936  0.1762  1.0000  -3.9892   0.0000   0.0000   0.0000   0.2864
  12.800   1.6109   0.03852   0.03217  -0.0930  0.1709  1.0000  -4.0258   0.0000   0.0000   0.0000   0.2857
  12.900   1.6117   0.03936   0.03300  -0.0923  0.1661  1.0000  -4.0606   0.0000   0.0000   0.0000   0.2851
  13.000   1.6122   0.04023   0.03386  -0.0917  0.1614  1.0000  -4.0944   0.0000   0.0000   0.0000   0.2845
  13.100   1.6134   0.04105   0.03467  -0.0911  0.1567  1.0000  -4.1308   0.0000   0.0000   0.0000   0.2838
  13.300   1.6149   0.04280   0.03641  -0.0899  0.1479  1.0000  -4.2002   0.0000   0.0000   0.0000   0.2826
  13.400   1.6150   0.04376   0.03735  -0.0893  0.1439  1.0000  -4.2328   0.0000   0.0000   0.0000   0.2820
  13.500   1.6161   0.04462   0.03822  -0.0888  0.1395  1.0000  -4.2688   0.0000   0.0000   0.0000   0.2815
  13.600   1.6164   0.04557   0.03916  -0.0882  0.1355  1.0000  -4.3022   0.0000   0.0000   0.0000   0.2809
  13.700   1.6169   0.04651   0.04010  -0.0877  0.1314  1.0000  -4.3362   0.0000   0.0000   0.0000   0.2803
  13.800   1.6174   0.04746   0.04105  -0.0872  0.1275  1.0000  -4.3707   0.0000   0.0000   0.0000   0.2798
  13.900   1.6174   0.04846   0.04204  -0.0867  0.1237  1.0000  -4.4054   0.0000   0.0000   0.0000   0.2792
  14.000   1.6179   0.04942   0.04300  -0.0862  0.1200  1.0000  -4.4418   0.0000   0.0000   0.0000   0.2787
  14.100   1.6176   0.05046   0.04404  -0.0857  0.1164  1.0000  -4.4754   0.0000   0.0000   0.0000   0.2782
  14.200   1.6181   0.05145   0.04503  -0.0852  0.1129  1.0000  -4.5116   0.0000   0.0000   0.0000   0.2777
  14.300   1.6177   0.05252   0.04610  -0.0847  0.1096  1.0000  -4.5449   0.0000   0.0000   0.0000   0.2772
  14.400   1.6179   0.05356   0.04714  -0.0843  0.1065  1.0000  -4.5801   0.0000   0.0000   0.0000   0.2767
  14.500   1.6177   0.05463   0.04822  -0.0839  0.1034  1.0000  -4.6139   0.0000   0.0000   0.0000   0.2762
  14.600   1.6173   0.05574   0.04933  -0.0835  0.1006  1.0000  -4.6477   0.0000   0.0000   0.0000   0.2757
  14.700   1.6175   0.05680   0.05040  -0.0831  0.0976  1.0000  -4.6872   0.0000   0.0000   0.0000   0.2752
  14.800   1.6161   0.05804   0.05163  -0.0827  0.0953  1.0000  -4.7207   0.0000   0.0000   0.0000   0.2748
  14.900   1.6170   0.05904   0.05265  -0.0823  0.0924  1.0000  -4.7638   0.0000   0.0000   0.0000   0.2743
  15.000   1.6160   0.06023   0.05385  -0.0819  0.0901  1.0000  -4.7994   0.0000   0.0000   0.0000   0.2739
  15.100   1.6156   0.06139   0.05502  -0.0816  0.0879  1.0000  -4.8367   0.0000   0.0000   0.0000   0.2735
  15.200   1.6156   0.06249   0.05614  -0.0813  0.0855  1.0000  -4.8762   0.0000   0.0000   0.0000   0.2730
  15.300   1.6140   0.06378   0.05744  -0.0809  0.0836  1.0000  -4.9092   0.0000   0.0000   0.0000   0.2727
  15.400   1.6139   0.06492   0.05860  -0.0807  0.0815  1.0000  -4.9480   0.0000   0.0000   0.0000   0.2723
  15.500   1.6137   0.06610   0.05979  -0.0804  0.0794  1.0000  -4.9863   0.0000   0.0000   0.0000   0.2719
  15.600   1.6121   0.06743   0.06112  -0.0801  0.0777  1.0000  -5.0188   0.0000   0.0000   0.0000   0.2715
  15.700   1.6114   0.06866   0.06237  -0.0799  0.0760  1.0000  -5.0553   0.0000   0.0000   0.0000   0.2711
  15.800   1.6113   0.06984   0.06358  -0.0796  0.0741  1.0000  -5.0941   0.0000   0.0000   0.0000   0.2708
  15.900   1.6100   0.07117   0.06492  -0.0794  0.0725  1.0000  -5.1277   0.0000   0.0000   0.0000   0.2704
  16.000   1.6076   0.07263   0.06639  -0.0792  0.0712  1.0000  -5.1562   0.0000   0.0000   0.0000   0.2702
  16.100   1.6083   0.07374   0.06753  -0.0790  0.0694  1.0000  -5.1984   0.0000   0.0000   0.0000   0.2698
  16.200   1.6073   0.07504   0.06886  -0.0789  0.0679  1.0000  -5.2336   0.0000   0.0000   0.0000   0.2695
  16.300   1.6053   0.07649   0.07032  -0.0787  0.0666  1.0000  -5.2638   0.0000   0.0000   0.0000   0.2692
  16.400   1.6033   0.07794   0.07178  -0.0786  0.0654  1.0000  -5.2936   0.0000   0.0000   0.0000   0.2690
  16.500   1.6034   0.07912   0.07300  -0.0785  0.0639  1.0000  -5.3333   0.0000   0.0000   0.0000   0.2686
  16.600   1.6023   0.08047   0.07438  -0.0784  0.0625  1.0000  -5.3672   0.0000   0.0000   0.0000   0.2684
  16.700   1.6000   0.08198   0.07590  -0.0783  0.0614  1.0000  -5.3957   0.0000   0.0000   0.0000   0.2681
  16.800   1.5967   0.08362   0.07754  -0.0782  0.0605  1.0000  -5.4196   0.0000   0.0000   0.0000   0.2680
  16.900   1.5971   0.08481   0.07878  -0.0782  0.0591  1.0000  -5.4598   0.0000   0.0000   0.0000   0.2677
  17.000   1.5964   0.08614   0.08015  -0.0781  0.0579  1.0000  -5.4951   0.0000   0.0000   0.0000   0.2674
  17.100   1.5944   0.08765   0.08168  -0.0781  0.0568  1.0000  -5.5247   0.0000   0.0000   0.0000   0.2673
  17.200   1.5915   0.08928   0.08331  -0.0781  0.0560  1.0000  -5.5498   0.0000   0.0000   0.0000   0.2671
  17.300   1.5891   0.09087   0.08492  -0.0782  0.0551  1.0000  -5.5764   0.0000   0.0000   0.0000   0.2670
  17.400   1.5889   0.09216   0.08627  -0.0782  0.0539  1.0000  -5.6131   0.0000   0.0000   0.0000   0.2667
  17.500   1.5878   0.09358   0.08772  -0.0782  0.0529  1.0000  -5.6462   0.0000   0.0000   0.0000   0.2666
  17.600   1.5857   0.09514   0.08930  -0.0783  0.0520  1.0000  -5.6744   0.0000   0.0000   0.0000   0.2664
  17.700   1.5829   0.09679   0.09096  -0.0785  0.0512  1.0000  -5.6989   0.0000   0.0000   0.0000   0.2664
  17.800   1.5789   0.09860   0.09278  -0.0786  0.0506  1.0000  -5.7169   0.0000   0.0000   0.0000   0.2663
  17.900   1.5788   0.09991   0.09414  -0.0787  0.0496  1.0000  -5.7534   0.0000   0.0000   0.0000   0.2661
  18.000   1.5777   0.10135   0.09563  -0.0788  0.0486  1.0000  -5.7851   0.0000   0.0000   0.0000   0.2660
  18.100   1.5762   0.10286   0.09717  -0.0790  0.0478  1.0000  -5.8147   0.0000   0.0000   0.0000   0.2659
  18.200   1.5739   0.10447   0.09879  -0.0792  0.0471  1.0000  -5.8410   0.0000   0.0000   0.0000   0.2659
  18.300   1.5708   0.10619   0.10053  -0.0794  0.0464  1.0000  -5.8628   0.0000   0.0000   0.0000   0.2659
  18.400   1.5671   0.10799   0.10233  -0.0796  0.0458  1.0000  -5.8809   0.0000   0.0000   0.0000   0.2659
  18.500   1.5668   0.10937   0.10377  -0.0798  0.0450  1.0000  -5.9147   0.0000   0.0000   0.0000   0.2658
  18.600   1.5658   0.11083   0.10528  -0.0801  0.0441  1.0000  -5.9459   0.0000   0.0000   0.0000   0.2657
  18.700   1.5643   0.11238   0.10687  -0.0804  0.0434  1.0000  -5.9744   0.0000   0.0000   0.0000   0.2657
  18.800   1.5625   0.11397   0.10848  -0.0807  0.0427  1.0000  -6.0019   0.0000   0.0000   0.0000   0.2657
  18.900   1.5600   0.11565   0.11017  -0.0810  0.0421  1.0000  -6.0255   0.0000   0.0000   0.0000   0.2657
  19.000   1.5568   0.11741   0.11192  -0.0814  0.0416  1.0000  -6.0452   0.0000   0.0000   0.0000   0.2658
  19.100   1.5554   0.11895   0.11351  -0.0817  0.0409  1.0000  -6.0725   0.0000   0.0000   0.0000   0.2658
  19.200   1.5546   0.12044   0.11505  -0.0821  0.0402  1.0000  -6.1024   0.0000   0.0000   0.0000   0.2658
  19.300   1.5535   0.12196   0.11661  -0.0824  0.0395  1.0000  -6.1316   0.0000   0.0000   0.0000   0.2658
  19.400   1.5520   0.12352   0.11820  -0.0828  0.0389  1.0000  -6.1593   0.0000   0.0000   0.0000   0.2659
  19.500   1.5505   0.12511   0.11981  -0.0833  0.0384  1.0000  -6.1864   0.0000   0.0000   0.0000   0.2660
  19.600   1.5486   0.12673   0.12145  -0.0837  0.0379  1.0000  -6.2116   0.0000   0.0000   0.0000   0.2661
  19.700   1.5462   0.12838   0.12309  -0.0842  0.0374  1.0000  -6.2340   0.0000   0.0000   0.0000   0.2662
  19.800   1.5446   0.12992   0.12465  -0.0846  0.0369  1.0000  -6.2593   0.0000   0.0000   0.0000   0.2662
  19.900   1.5438   0.13142   0.12621  -0.0850  0.0363  1.0000  -6.2876   0.0000   0.0000   0.0000   0.2663
  20.000   1.5429   0.13293   0.12777  -0.0855  0.0358  1.0000  -6.3152   0.0000   0.0000   0.0000   0.2664


