xflr5 v6.57

 Calculated polar for: reaf

 1 1 Reynolds number fixed          Mach number fixed         

 xtrf =   1.000 (top)        1.000 (bottom)
 Mach =   0.000     Re =     0.200 e 6     Ncrit =   9.000

  alpha     CL        CD       CDp       Cm    Top Xtr Bot Xtr   Cpmin    Chinge    XCp    
 ------- -------- --------- --------- -------- ------- ------- -------- --------- ---------
 -10.000  -0.1215   0.09801   0.09421  -0.0990  0.9189  0.0649  -1.7639   0.0000   0.0000   0.0000  -0.6245
  -9.900  -0.1129   0.09713   0.09332  -0.0976  0.9175  0.0651  -1.6976   0.0000   0.0000   0.0000  -0.6784
  -9.800  -0.1050   0.09632   0.09250  -0.0967  0.9155  0.0654  -1.6422   0.0000   0.0000   0.0000  -0.7389
  -9.700  -0.0982   0.09557   0.09174  -0.0960  0.9137  0.0658  -1.5961   0.0000   0.0000   0.0000  -0.7992
  -9.600  -0.0929   0.09480   0.09097  -0.0956  0.9119  0.0664  -1.5627   0.0000   0.0000   0.0000  -0.8535
  -9.500  -0.0888   0.09394   0.09010  -0.0956  0.9100  0.0672  -1.5425   0.0000   0.0000   0.0000  -0.9042
  -9.400  -0.0858   0.09293   0.08909  -0.0960  0.9077  0.0682  -1.5368   0.0000   0.0000   0.0000  -0.9486
  -9.300  -0.0860   0.09164   0.08780  -0.0971  0.9055  0.0697  -1.5609   0.0000   0.0000   0.0000  -0.9572
  -8.900  -0.0820   0.08639   0.08254  -0.1000  0.8973  0.0723  -1.6097   0.0000   0.0000   0.0000  -1.0477
  -8.800  -0.0776   0.08557   0.08171  -0.0998  0.8958  0.0730  -1.5854   0.0000   0.0000   0.0000  -1.1193
  -8.700  -0.0737   0.08461   0.08075  -0.1002  0.8935  0.0737  -1.5726   0.0000   0.0000   0.0000  -1.1960
  -8.600  -0.0714   0.08350   0.07965  -0.1008  0.8914  0.0747  -1.5726   0.0000   0.0000   0.0000  -1.2491
  -8.500  -0.0734   0.08194   0.07808  -0.1025  0.8893  0.0763  -1.6123   0.0000   0.0000   0.0000  -1.2309
  -7.800  -0.0586   0.07348   0.06964  -0.1074  0.8750  0.0816  -1.6213   0.0000   0.0000   0.0000  -1.6793
  -7.600  -0.1341   0.04356   0.03878  -0.1441  0.8644  0.0590  -2.9157   0.0000   0.0000   0.0000  -0.8686
  -7.500  -0.1271   0.04276   0.03802  -0.1441  0.8625  0.0592  -2.8685   0.0000   0.0000   0.0000  -0.9296
  -7.300  -0.1137   0.04104   0.03626  -0.1444  0.8587  0.0596  -2.7953   0.0000   0.0000   0.0000  -1.0703
  -7.200  -0.1064   0.04015   0.03532  -0.1447  0.8573  0.0599  -2.7604   0.0000   0.0000   0.0000  -1.1622
  -7.100  -0.0985   0.03938   0.03451  -0.1449  0.8561  0.0602  -2.7248   0.0000   0.0000   0.0000  -1.2777
  -7.000  -0.0899   0.03905   0.03418  -0.1449  0.8547  0.0609  -2.6720   0.0000   0.0000   0.0000  -1.4222
  -6.900  -0.0929   0.03405   0.02855  -0.1467  0.8514  0.0574  -2.8775   0.0000   0.0000   0.0000  -1.3887
  -6.800  -0.0863   0.03246   0.02673  -0.1471  0.8498  0.0570  -2.8919   0.0000   0.0000   0.0000  -1.5177
  -6.700  -0.0787   0.03096   0.02499  -0.1474  0.8484  0.0568  -2.9006   0.0000   0.0000   0.0000  -1.6910
  -6.600  -0.0702   0.02966   0.02345  -0.1476  0.8473  0.0569  -2.8983   0.0000   0.0000   0.0000  -1.9297
  -6.500  -0.0620   0.02867   0.02226  -0.1476  0.8457  0.0571  -2.8867   0.0000   0.0000   0.0000  -2.2182
  -6.400  -0.0543   0.02788   0.02130  -0.1476  0.8433  0.0574  -2.8704   0.0000   0.0000   0.0000  -2.5631
  -6.300  -0.0453   0.02708   0.02029  -0.1476  0.8416  0.0580  -2.8500   0.0000   0.0000   0.0000  -3.1265
  -6.200  -0.0354   0.02635   0.01925  -0.1476  0.8403  0.0588  -2.8306   0.0000   0.0000   0.0000  -4.0631
  -6.100  -0.0252   0.02572   0.01857  -0.1477  0.8392  0.0595  -2.7822   0.0000   0.0000   0.0000  -5.8174
  -6.000  -0.0143   0.02541   0.01831  -0.1477  0.8383  0.0603  -2.7161   0.0000   0.0000   0.0000  -10.4586
  -5.900  -0.0048   0.02516   0.01806  -0.1476  0.8365  0.0611  -2.6625   0.0000   0.0000   0.0000  -31.2323
  -5.800   0.0040   0.02487   0.01771  -0.1474  0.8343  0.0619  -2.6201   0.0000   0.0000   0.0000  38.2071
  -5.700   0.0141   0.02443   0.01716  -0.1474  0.8327  0.0627  -2.5857   0.0000   0.0000   0.0000  11.0129
  -5.600   0.0249   0.02394   0.01653  -0.1473  0.8314  0.0634  -2.5531   0.0000   0.0000   0.0000   6.3658
  -5.500   0.0360   0.02346   0.01587  -0.1473  0.8304  0.0643  -2.5211   0.0000   0.0000   0.0000   4.4704
  -5.400   0.0472   0.02298   0.01527  -0.1473  0.8295  0.0651  -2.4839   0.0000   0.0000   0.0000   3.4654
  -5.300   0.0577   0.02264   0.01497  -0.1473  0.8283  0.0661  -2.4311   0.0000   0.0000   0.0000   2.8803
  -5.200   0.0659   0.02256   0.01492  -0.1471  0.8256  0.0671  -2.3845   0.0000   0.0000   0.0000   2.5474
  -5.100   0.0762   0.02236   0.01470  -0.1470  0.8239  0.0684  -2.3362   0.0000   0.0000   0.0000   2.2356
  -5.000   0.0872   0.02209   0.01433  -0.1469  0.8226  0.0699  -2.2927   0.0000   0.0000   0.0000   1.9832
  -4.900   0.0986   0.02177   0.01388  -0.1469  0.8216  0.0713  -2.2513   0.0000   0.0000   0.0000   1.7814
  -4.800   0.1098   0.02142   0.01358  -0.1470  0.8207  0.0725  -2.1976   0.0000   0.0000   0.0000   1.6253
  -4.700   0.1214   0.02115   0.01331  -0.1470  0.8198  0.0738  -2.1456   0.0000   0.0000   0.0000   1.4937
  -4.600   0.1296   0.02109   0.01324  -0.1467  0.8171  0.0751  -2.1050   0.0000   0.0000   0.0000   1.4118
  -4.500   0.1397   0.02093   0.01301  -0.1465  0.8152  0.0767  -2.0633   0.0000   0.0000   0.0000   1.3262
  -4.400   0.1504   0.02066   0.01273  -0.1465  0.8138  0.0784  -2.0214   0.0000   0.0000   0.0000   1.2484
  -4.300   0.1616   0.02045   0.01255  -0.1465  0.8127  0.0802  -1.9728   0.0000   0.0000   0.0000   1.1790
  -4.200   0.1732   0.02024   0.01231  -0.1465  0.8118  0.0824  -1.9281   0.0000   0.0000   0.0000   1.1162
  -4.100   0.1851   0.01999   0.01199  -0.1465  0.8109  0.0846  -1.8867   0.0000   0.0000   0.0000   1.0604
  -4.000   0.1944   0.01985   0.01192  -0.1464  0.8090  0.0863  -1.8435   0.0000   0.0000   0.0000   1.0202
  -3.900   0.2034   0.01980   0.01189  -0.1461  0.8065  0.0884  -1.8035   0.0000   0.0000   0.0000   0.9847
  -3.800   0.2143   0.01968   0.01170  -0.1460  0.8050  0.0912  -1.7629   0.0000   0.0000   0.0000   0.9466
  -3.700   0.2252   0.01944   0.01154  -0.1461  0.8038  0.0937  -1.7158   0.0000   0.0000   0.0000   0.9124
  -3.600   0.2369   0.01926   0.01134  -0.1461  0.8028  0.0970  -1.6701   0.0000   0.0000   0.0000   0.8794
  -3.500   0.2486   0.01903   0.01111  -0.1461  0.8019  0.1002  -1.6249   0.0000   0.0000   0.0000   0.8497
  -3.400   0.2605   0.01883   0.01092  -0.1462  0.8011  0.1039  -1.5783   0.0000   0.0000   0.0000   0.8222
  -3.300   0.2680   0.01889   0.01101  -0.1458  0.7979  0.1073  -1.5429   0.0000   0.0000   0.0000   0.8045
  -3.200   0.2782   0.01879   0.01095  -0.1458  0.7961  0.1116  -1.4995   0.0000   0.0000   0.0000   0.7836
  -3.100   0.2894   0.01862   0.01081  -0.1458  0.7948  0.1165  -1.4552   0.0000   0.0000   0.0000   0.7627
  -3.000   0.3011   0.01845   0.01064  -0.1458  0.7937  0.1227  -1.4148   0.0000   0.0000   0.0000   0.7426
  -2.900   0.3130   0.01826   0.01047  -0.1459  0.7927  0.1295  -1.3731   0.0000   0.0000   0.0000   0.7240
  -2.800   0.3250   0.01807   0.01030  -0.1460  0.7919  0.1376  -1.3311   0.0000   0.0000   0.0000   0.7065
  -2.700   0.3340   0.01806   0.01036  -0.1458  0.7895  0.1458  -1.2952   0.0000   0.0000   0.0000   0.6934
  -2.600   0.3434   0.01803   0.01038  -0.1457  0.7872  0.1558  -1.2587   0.0000   0.0000   0.0000   0.6806
  -2.500   0.3544   0.01789   0.01030  -0.1457  0.7856  0.1681  -1.2186   0.0000   0.0000   0.0000   0.6670
  -2.400   0.3660   0.01772   0.01019  -0.1458  0.7845  0.1830  -1.1771   0.0000   0.0000   0.0000   0.6538
  -2.300   0.3779   0.01753   0.01007  -0.1460  0.7835  0.2003  -1.1349   0.0000   0.0000   0.0000   0.6412
  -2.200   0.3900   0.01734   0.00995  -0.1461  0.7826  0.2197  -1.0922   0.0000   0.0000   0.0000   0.6292
  -2.100   0.4023   0.01716   0.00983  -0.1463  0.7818  0.2413  -1.0490   0.0000   0.0000   0.0000   0.6178
  -2.000   0.4092   0.01731   0.01007  -0.1459  0.7782  0.2596  -1.0165   0.0000   0.0000   0.0000   0.6105
  -1.900   0.4199   0.01722   0.01007  -0.1459  0.7764  0.2823  -0.9786   0.0000   0.0000   0.0000   0.6011
  -1.800   0.4314   0.01708   0.01001  -0.1460  0.7751  0.3077  -0.9401   0.0000   0.0000   0.0000   0.5917
  -1.700   0.4432   0.01691   0.00994  -0.1461  0.7741  0.3355  -0.9012   0.0000   0.0000   0.0000   0.5826
  -1.600   0.4552   0.01674   0.00985  -0.1462  0.7731  0.3660  -0.8621   0.0000   0.0000   0.0000   0.5739
  -1.500   0.4673   0.01656   0.00977  -0.1464  0.7723  0.3986  -0.8230   0.0000   0.0000   0.0000   0.5655
  -1.400   0.4749   0.01666   0.01000  -0.1460  0.7692  0.4281  -0.8024   0.0000   0.0000   0.0000   0.5595
  -1.300   0.4848   0.01662   0.01008  -0.1459  0.7671  0.4620  -0.8089   0.0000   0.0000   0.0000   0.5527
  -1.200   0.4958   0.01650   0.01007  -0.1458  0.7657  0.4992  -0.8164   0.0000   0.0000   0.0000   0.5456
  -1.100   0.5070   0.01635   0.01003  -0.1457  0.7645  0.5373  -0.8243   0.0000   0.0000   0.0000   0.5387
  -1.000   0.5183   0.01620   0.00999  -0.1455  0.7635  0.5745  -0.8324   0.0000   0.0000   0.0000   0.5319
  -0.900   0.5296   0.01605   0.00994  -0.1453  0.7627  0.6110  -0.8405   0.0000   0.0000   0.0000   0.5253
  -0.800   0.5376   0.01612   0.01012  -0.1448  0.7602  0.6433  -0.8461   0.0000   0.0000   0.0000   0.5200
  -0.700   0.5458   0.01617   0.01027  -0.1442  0.7577  0.6741  -0.8519   0.0000   0.0000   0.0000   0.5147
  -0.600   0.5556   0.01611   0.01028  -0.1438  0.7561  0.7046  -0.8592   0.0000   0.0000   0.0000   0.5090
  -0.500   0.5658   0.01601   0.01024  -0.1433  0.7548  0.7330  -0.8668   0.0000   0.0000   0.0000   0.5033
  -0.400   0.5758   0.01590   0.01017  -0.1427  0.7538  0.7599  -0.8745   0.0000   0.0000   0.0000   0.4977
  -0.300   0.5859   0.01577   0.01009  -0.1422  0.7529  0.7860  -0.8825   0.0000   0.0000   0.0000   0.4923
  -0.200   0.5930   0.01582   0.01020  -0.1412  0.7506  0.8097  -0.8881   0.0000   0.0000   0.0000   0.4876
  -0.100   0.5989   0.01590   0.01035  -0.1401  0.7477  0.8336  -0.8932   0.0000   0.0000   0.0000   0.4833
   0.000   0.6066   0.01583   0.01031  -0.1391  0.7461  0.8590  -0.8999   0.0000   0.0000   0.0000   0.4784
   0.100   0.6152   0.01570   0.01021  -0.1382  0.7448  0.8874  -0.9074   0.0000   0.0000   0.0000   0.4735
   0.200   0.6264   0.01554   0.01006  -0.1377  0.7437  0.9222  -0.9165   0.0000   0.0000   0.0000   0.4687
   0.300   0.6473   0.01534   0.00985  -0.1394  0.7429  0.9794  -0.9309   0.0000   0.0000   0.0000   0.4640
   0.500   0.6687   0.01557   0.01002  -0.1397  0.7379  1.0000  -0.9469   0.0000   0.0000   0.0000   0.4572
   0.600   0.6806   0.01558   0.00998  -0.1399  0.7361  1.0000  -0.9562   0.0000   0.0000   0.0000   0.4536
   0.700   0.6934   0.01555   0.00990  -0.1402  0.7348  1.0000  -0.9663   0.0000   0.0000   0.0000   0.4501
   0.800   0.7065   0.01549   0.00979  -0.1405  0.7337  1.0000  -0.9768   0.0000   0.0000   0.0000   0.4466
   0.900   0.7199   0.01541   0.00966  -0.1408  0.7327  1.0000  -0.9877   0.0000   0.0000   0.0000   0.4432
   1.000   0.7297   0.01554   0.00977  -0.1407  0.7302  1.0000  -0.9956   0.0000   0.0000   0.0000   0.4403
   1.100   0.7392   0.01566   0.00988  -0.1406  0.7274  1.0000  -1.0037   0.0000   0.0000   0.0000   0.4374
   1.200   0.7511   0.01566   0.00984  -0.1407  0.7257  1.0000  -1.0138   0.0000   0.0000   0.0000   0.4344
   1.300   0.7638   0.01561   0.00975  -0.1409  0.7243  1.0000  -1.0248   0.0000   0.0000   0.0000   0.4315
   1.400   0.7769   0.01554   0.00963  -0.1412  0.7232  1.0000  -1.0364   0.0000   0.0000   0.0000   0.4285
   1.500   0.7904   0.01545   0.00950  -0.1415  0.7222  1.0000  -1.0482   0.0000   0.0000   0.0000   0.4257
   1.600   0.7981   0.01567   0.00973  -0.1411  0.7188  1.0000  -1.0555   0.0000   0.0000   0.0000   0.4233
   1.700   0.8087   0.01572   0.00976  -0.1410  0.7164  1.0000  -1.0651   0.0000   0.0000   0.0000   0.4208
   1.800   0.8209   0.01568   0.00969  -0.1412  0.7148  1.0000  -1.0763   0.0000   0.0000   0.0000   0.4182
   1.900   0.8339   0.01561   0.00959  -0.1414  0.7135  1.0000  -1.0883   0.0000   0.0000   0.0000   0.4157
   2.000   0.8473   0.01552   0.00945  -0.1417  0.7124  1.0000  -1.1008   0.0000   0.0000   0.0000   0.4132
   2.100   0.8573   0.01560   0.00953  -0.1416  0.7100  1.0000  -1.1107   0.0000   0.0000   0.0000   0.4109
   2.200   0.8663   0.01573   0.00966  -0.1413  0.7069  1.0000  -1.1197   0.0000   0.0000   0.0000   0.4088
   2.300   0.8781   0.01571   0.00962  -0.1414  0.7050  1.0000  -1.1312   0.0000   0.0000   0.0000   0.4065
   2.400   0.8909   0.01564   0.00952  -0.1416  0.7035  1.0000  -1.1439   0.0000   0.0000   0.0000   0.4043
   2.500   0.9042   0.01555   0.00939  -0.1418  0.7023  1.0000  -1.1571   0.0000   0.0000   0.0000   0.4021
   2.600   0.9159   0.01554   0.00936  -0.1419  0.7005  1.0000  -1.1693   0.0000   0.0000   0.0000   0.4000
   2.700   0.9236   0.01572   0.00956  -0.1414  0.6968  1.0000  -1.1782   0.0000   0.0000   0.0000   0.3981
   2.800   0.9352   0.01570   0.00953  -0.1415  0.6948  1.0000  -1.1905   0.0000   0.0000   0.0000   0.3961
   2.900   0.9479   0.01563   0.00943  -0.1417  0.6932  1.0000  -1.2037   0.0000   0.0000   0.0000   0.3941
   3.000   0.9612   0.01554   0.00930  -0.1419  0.6918  1.0000  -1.2175   0.0000   0.0000   0.0000   0.3922
   3.100   0.9715   0.01559   0.00935  -0.1418  0.6893  1.0000  -1.2294   0.0000   0.0000   0.0000   0.3904
   3.200   0.9805   0.01570   0.00947  -0.1415  0.6861  1.0000  -1.2402   0.0000   0.0000   0.0000   0.3886
   3.300   0.9923   0.01566   0.00942  -0.1416  0.6839  1.0000  -1.2535   0.0000   0.0000   0.0000   0.3868
   3.400   1.0052   0.01558   0.00930  -0.1418  0.6823  1.0000  -1.2678   0.0000   0.0000   0.0000   0.3850
   3.500   1.0187   0.01548   0.00917  -0.1420  0.6809  1.0000  -1.2830   0.0000   0.0000   0.0000   0.3833
   3.600   1.0264   0.01564   0.00936  -0.1416  0.6772  1.0000  -1.2934   0.0000   0.0000   0.0000   0.3816
   3.700   1.0370   0.01566   0.00938  -0.1415  0.6745  1.0000  -1.3066   0.0000   0.0000   0.0000   0.3800
   3.800   1.0493   0.01559   0.00930  -0.1416  0.6726  1.0000  -1.3216   0.0000   0.0000   0.0000   0.3784
   3.900   1.0626   0.01550   0.00917  -0.1418  0.6710  1.0000  -1.3376   0.0000   0.0000   0.0000   0.3768
   4.000   1.0723   0.01557   0.00925  -0.1416  0.6680  1.0000  -1.3512   0.0000   0.0000   0.0000   0.3752
   4.100   1.0817   0.01564   0.00933  -0.1413  0.6647  1.0000  -1.3646   0.0000   0.0000   0.0000   0.3737
   4.200   1.0936   0.01559   0.00927  -0.1414  0.6624  1.0000  -1.3806   0.0000   0.0000   0.0000   0.3722
   4.300   1.1067   0.01550   0.00915  -0.1416  0.6606  1.0000  -1.3980   0.0000   0.0000   0.0000   0.3707
   4.400   1.1169   0.01554   0.00920  -0.1415  0.6577  1.0000  -1.4128   0.0000   0.0000   0.0000   0.3693
   4.500   1.1259   0.01562   0.00930  -0.1411  0.6542  1.0000  -1.4270   0.0000   0.0000   0.0000   0.3678
   4.600   1.1378   0.01557   0.00924  -0.1412  0.6517  1.0000  -1.4439   0.0000   0.0000   0.0000   0.3664
   4.700   1.1509   0.01549   0.00912  -0.1414  0.6498  1.0000  -1.4623   0.0000   0.0000   0.0000   0.3651
   4.800   1.1598   0.01557   0.00923  -0.1411  0.6462  1.0000  -1.4769   0.0000   0.0000   0.0000   0.3637
   4.900   1.1697   0.01561   0.00927  -0.1409  0.6429  1.0000  -1.4926   0.0000   0.0000   0.0000   0.3623
   5.000   1.1818   0.01556   0.00920  -0.1409  0.6404  1.0000  -1.5108   0.0000   0.0000   0.0000   0.3610
   5.100   1.1952   0.01547   0.00908  -0.1412  0.6384  1.0000  -1.5306   0.0000   0.0000   0.0000   0.3598
   5.200   1.2020   0.01562   0.00929  -0.1406  0.6339  1.0000  -1.5443   0.0000   0.0000   0.0000   0.3584
   5.300   1.2130   0.01561   0.00927  -0.1405  0.6308  1.0000  -1.5634   0.0000   0.0000   0.0000   0.3571
   5.400   1.2258   0.01554   0.00916  -0.1407  0.6284  1.0000  -1.5847   0.0000   0.0000   0.0000   0.3559
   5.500   1.2341   0.01563   0.00929  -0.1402  0.6243  1.0000  -1.6018   0.0000   0.0000   0.0000   0.3546
   5.600   1.2442   0.01566   0.00932  -0.1400  0.6207  1.0000  -1.6211   0.0000   0.0000   0.0000   0.3534
   5.700   1.2566   0.01560   0.00923  -0.1401  0.6180  1.0000  -1.6436   0.0000   0.0000   0.0000   0.3522
   5.800   1.2653   0.01568   0.00933  -0.1397  0.6139  1.0000  -1.6620   0.0000   0.0000   0.0000   0.3510
   5.900   1.2749   0.01571   0.00938  -0.1395  0.6100  1.0000  -1.6819   0.0000   0.0000   0.0000   0.3498
   6.000   1.2872   0.01567   0.00930  -0.1396  0.6071  1.0000  -1.7052   0.0000   0.0000   0.0000   0.3487
   6.100   1.2953   0.01576   0.00943  -0.1391  0.6026  1.0000  -1.7238   0.0000   0.0000   0.0000   0.3475
   6.200   1.3052   0.01579   0.00946  -0.1388  0.5987  1.0000  -1.7454   0.0000   0.0000   0.0000   0.3463
   6.300   1.3177   0.01575   0.00938  -0.1390  0.5957  1.0000  -1.7707   0.0000   0.0000   0.0000   0.3453
   6.400   1.3245   0.01589   0.00956  -0.1383  0.5906  1.0000  -1.7916   0.0000   0.0000   0.0000   0.3441
   6.500   1.3351   0.01590   0.00956  -0.1382  0.5867  1.0000  -1.8190   0.0000   0.0000   0.0000   0.3430
   6.600   1.3448   0.01595   0.00962  -0.1379  0.5827  1.0000  -1.8453   0.0000   0.0000   0.0000   0.3419
   6.700   1.3532   0.01603   0.00972  -0.1375  0.5780  1.0000  -1.8707   0.0000   0.0000   0.0000   0.3408
   6.800   1.3646   0.01604   0.00969  -0.1374  0.5744  1.0000  -1.9015   0.0000   0.0000   0.0000   0.3397
   6.900   1.3718   0.01616   0.00985  -0.1368  0.5691  1.0000  -1.9278   0.0000   0.0000   0.0000   0.3386
   7.000   1.3817   0.01621   0.00988  -0.1366  0.5648  1.0000  -1.9586   0.0000   0.0000   0.0000   0.3376
   7.100   1.3903   0.01630   0.00998  -0.1361  0.5601  1.0000  -1.9884   0.0000   0.0000   0.0000   0.3365
   7.200   1.3989   0.01638   0.01006  -0.1357  0.5551  1.0000  -2.0186   0.0000   0.0000   0.0000   0.3354
   7.300   1.4084   0.01645   0.01012  -0.1354  0.5505  1.0000  -2.0504   0.0000   0.0000   0.0000   0.3344
   7.400   1.4158   0.01657   0.01026  -0.1348  0.5449  1.0000  -2.0791   0.0000   0.0000   0.0000   0.3333
   7.500   1.4255   0.01663   0.01030  -0.1345  0.5403  1.0000  -2.1129   0.0000   0.0000   0.0000   0.3323
   7.600   1.4322   0.01677   0.01046  -0.1338  0.5345  1.0000  -2.1418   0.0000   0.0000   0.0000   0.3312
   7.700   1.4416   0.01685   0.01051  -0.1335  0.5297  1.0000  -2.1769   0.0000   0.0000   0.0000   0.3302
   7.800   1.4479   0.01701   0.01069  -0.1327  0.5237  1.0000  -2.2069   0.0000   0.0000   0.0000   0.3291
   7.900   1.4569   0.01711   0.01076  -0.1324  0.5187  1.0000  -2.2420   0.0000   0.0000   0.0000   0.3281
   8.000   1.4630   0.01728   0.01095  -0.1316  0.5126  1.0000  -2.2719   0.0000   0.0000   0.0000   0.3270
   8.100   1.4713   0.01740   0.01104  -0.1311  0.5074  1.0000  -2.3060   0.0000   0.0000   0.0000   0.3260
   8.200   1.4773   0.01757   0.01124  -0.1303  0.5013  1.0000  -2.3369   0.0000   0.0000   0.0000   0.3250
   8.300   1.4846   0.01773   0.01137  -0.1297  0.4958  1.0000  -2.3712   0.0000   0.0000   0.0000   0.3240
   8.400   1.4905   0.01791   0.01156  -0.1289  0.4896  1.0000  -2.4029   0.0000   0.0000   0.0000   0.3229
   8.500   1.4968   0.01809   0.01173  -0.1281  0.4837  1.0000  -2.4354   0.0000   0.0000   0.0000   0.3219
   8.600   1.5026   0.01828   0.01190  -0.1272  0.4777  1.0000  -2.4673   0.0000   0.0000   0.0000   0.3208
   8.700   1.5069   0.01848   0.01211  -0.1262  0.4715  1.0000  -2.4963   0.0000   0.0000   0.0000   0.3197
   8.800   1.5124   0.01868   0.01227  -0.1253  0.4655  1.0000  -2.5283   0.0000   0.0000   0.0000   0.3186
   8.900   1.5158   0.01893   0.01253  -0.1241  0.4589  1.0000  -2.5636   0.0000   0.0000   0.0000   0.3175
   9.000   1.5206   0.01916   0.01273  -0.1231  0.4529  1.0000  -2.6037   0.0000   0.0000   0.0000   0.3164
   9.100   1.5241   0.01943   0.01300  -0.1220  0.4463  1.0000  -2.6404   0.0000   0.0000   0.0000   0.3153
   9.200   1.5281   0.01971   0.01328  -0.1210  0.4401  1.0000  -2.6783   0.0000   0.0000   0.0000   0.3142
   9.300   1.5320   0.02000   0.01354  -0.1199  0.4338  1.0000  -2.7164   0.0000   0.0000   0.0000   0.3132
   9.400   1.5352   0.02032   0.01387  -0.1188  0.4274  1.0000  -2.7527   0.0000   0.0000   0.0000   0.3121
   9.500   1.5392   0.02063   0.01414  -0.1179  0.4215  1.0000  -2.7915   0.0000   0.0000   0.0000   0.3111
   9.600   1.5419   0.02099   0.01451  -0.1168  0.4149  1.0000  -2.8266   0.0000   0.0000   0.0000   0.3101
   9.700   1.5453   0.02134   0.01484  -0.1158  0.4088  1.0000  -2.8640   0.0000   0.0000   0.0000   0.3091
   9.800   1.5482   0.02172   0.01521  -0.1147  0.4025  1.0000  -2.8999   0.0000   0.0000   0.0000   0.3081
   9.900   1.5510   0.02211   0.01560  -0.1137  0.3962  1.0000  -2.9360   0.0000   0.0000   0.0000   0.3071
  10.000   1.5540   0.02251   0.01597  -0.1127  0.3902  1.0000  -2.9725   0.0000   0.0000   0.0000   0.3062
  10.100   1.5564   0.02294   0.01641  -0.1117  0.3837  1.0000  -3.0075   0.0000   0.0000   0.0000   0.3052
  10.200   1.5591   0.02337   0.01682  -0.1107  0.3778  1.0000  -3.0436   0.0000   0.0000   0.0000   0.3043
  10.300   1.5613   0.02383   0.01728  -0.1097  0.3713  1.0000  -3.0783   0.0000   0.0000   0.0000   0.3034
  10.400   1.5637   0.02430   0.01774  -0.1087  0.3652  1.0000  -3.1135   0.0000   0.0000   0.0000   0.3024
  10.500   1.5658   0.02479   0.01821  -0.1077  0.3591  1.0000  -3.1483   0.0000   0.0000   0.0000   0.3015
  10.600   1.5680   0.02529   0.01872  -0.1068  0.3528  1.0000  -3.1830   0.0000   0.0000   0.0000   0.3006
  10.700   1.5699   0.02581   0.01921  -0.1058  0.3471  1.0000  -3.2176   0.0000   0.0000   0.0000   0.2997
  10.800   1.5718   0.02634   0.01975  -0.1049  0.3406  1.0000  -3.2517   0.0000   0.0000   0.0000   0.2989
  10.900   1.5736   0.02689   0.02029  -0.1040  0.3347  1.0000  -3.2859   0.0000   0.0000   0.0000   0.2980
  11.000   1.5752   0.02746   0.02085  -0.1030  0.3286  1.0000  -3.3195   0.0000   0.0000   0.0000   0.2972
  11.100   1.5770   0.02804   0.02143  -0.1021  0.3225  1.0000  -3.3535   0.0000   0.0000   0.0000   0.2963
  11.200   1.5782   0.02865   0.02201  -0.1012  0.3169  1.0000  -3.3883   0.0000   0.0000   0.0000   0.2955
  11.300   1.5797   0.02925   0.02263  -0.1003  0.3106  1.0000  -3.4240   0.0000   0.0000   0.0000   0.2947
  11.400   1.5808   0.02989   0.02325  -0.0994  0.3049  1.0000  -3.4586   0.0000   0.0000   0.0000   0.2939
  11.500   1.5820   0.03054   0.02390  -0.0985  0.2988  1.0000  -3.4933   0.0000   0.0000   0.0000   0.2931
  11.600   1.5832   0.03120   0.02455  -0.0977  0.2929  1.0000  -3.5281   0.0000   0.0000   0.0000   0.2923
  11.700   1.5838   0.03189   0.02523  -0.0968  0.2873  1.0000  -3.5614   0.0000   0.0000   0.0000   0.2915
  11.800   1.5849   0.03257   0.02592  -0.0960  0.2812  1.0000  -3.5961   0.0000   0.0000   0.0000   0.2907
  11.900   1.5853   0.03330   0.02662  -0.0951  0.2758  1.0000  -3.6288   0.0000   0.0000   0.0000   0.2899
  12.000   1.5861   0.03402   0.02735  -0.0943  0.2698  1.0000  -3.6627   0.0000   0.0000   0.0000   0.2892
  12.100   1.5867   0.03476   0.02808  -0.0935  0.2642  1.0000  -3.6958   0.0000   0.0000   0.0000   0.2885
  12.200   1.5868   0.03554   0.02884  -0.0926  0.2587  1.0000  -3.7279   0.0000   0.0000   0.0000   0.2877
  12.300   1.5875   0.03630   0.02961  -0.0919  0.2529  1.0000  -3.7614   0.0000   0.0000   0.0000   0.2870
  12.400   1.5870   0.03713   0.03041  -0.0910  0.2479  1.0000  -3.7917   0.0000   0.0000   0.0000   0.2863
  12.500   1.5878   0.03791   0.03121  -0.0903  0.2419  1.0000  -3.8253   0.0000   0.0000   0.0000   0.2856
  12.600   1.5876   0.03875   0.03204  -0.0895  0.2367  1.0000  -3.8563   0.0000   0.0000   0.0000   0.2849
  12.700   1.5876   0.03960   0.03289  -0.0888  0.2312  1.0000  -3.8878   0.0000   0.0000   0.0000   0.2842
  12.800   1.5877   0.04046   0.03375  -0.0881  0.2258  1.0000  -3.9196   0.0000   0.0000   0.0000   0.2835
  12.900   1.5871   0.04138   0.03465  -0.0873  0.2208  1.0000  -3.9492   0.0000   0.0000   0.0000   0.2829
  13.000   1.5874   0.04225   0.03554  -0.0867  0.2152  1.0000  -3.9815   0.0000   0.0000   0.0000   0.2823
  13.100   1.5867   0.04322   0.03648  -0.0860  0.2103  1.0000  -4.0106   0.0000   0.0000   0.0000   0.2816
  13.200   1.5867   0.04415   0.03742  -0.0853  0.2048  1.0000  -4.0418   0.0000   0.0000   0.0000   0.2810
  13.300   1.5862   0.04512   0.03838  -0.0847  0.1998  1.0000  -4.0717   0.0000   0.0000   0.0000   0.2804
  13.400   1.5853   0.04614   0.03939  -0.0841  0.1948  1.0000  -4.1001   0.0000   0.0000   0.0000   0.2798
  13.500   1.5851   0.04712   0.04038  -0.0835  0.1896  1.0000  -4.1305   0.0000   0.0000   0.0000   0.2793
  13.600   1.5835   0.04822   0.04144  -0.0829  0.1852  1.0000  -4.1567   0.0000   0.0000   0.0000   0.2787
  13.700   1.5835   0.04921   0.04246  -0.0823  0.1798  1.0000  -4.1876   0.0000   0.0000   0.0000   0.2782
  13.800   1.5823   0.05032   0.04355  -0.0818  0.1752  1.0000  -4.2148   0.0000   0.0000   0.0000   0.2776
  13.900   1.5815   0.05141   0.04464  -0.0813  0.1703  1.0000  -4.2430   0.0000   0.0000   0.0000   0.2771
  14.000   1.5806   0.05251   0.04574  -0.0808  0.1657  1.0000  -4.2727   0.0000   0.0000   0.0000   0.2766
  14.100   1.5791   0.05368   0.04690  -0.0803  0.1614  1.0000  -4.3008   0.0000   0.0000   0.0000   0.2761
  14.200   1.5786   0.05479   0.04803  -0.0798  0.1567  1.0000  -4.3317   0.0000   0.0000   0.0000   0.2756
  14.300   1.5766   0.05603   0.04924  -0.0793  0.1528  1.0000  -4.3581   0.0000   0.0000   0.0000   0.2751
  14.400   1.5762   0.05714   0.05037  -0.0789  0.1482  1.0000  -4.3894   0.0000   0.0000   0.0000   0.2747
  14.500   1.5740   0.05843   0.05162  -0.0785  0.1448  1.0000  -4.4145   0.0000   0.0000   0.0000   0.2742
  14.600   1.5737   0.05954   0.05277  -0.0781  0.1403  1.0000  -4.4459   0.0000   0.0000   0.0000   0.2738
  14.700   1.5713   0.06087   0.05406  -0.0777  0.1371  1.0000  -4.4704   0.0000   0.0000   0.0000   0.2734
  14.800   1.5711   0.06201   0.05524  -0.0774  0.1329  1.0000  -4.5018   0.0000   0.0000   0.0000   0.2729
  14.900   1.5688   0.06335   0.05655  -0.0770  0.1299  1.0000  -4.5263   0.0000   0.0000   0.0000   0.2725
  15.000   1.5685   0.06451   0.05775  -0.0767  0.1260  1.0000  -4.5593   0.0000   0.0000   0.0000   0.2721
  15.100   1.5664   0.06586   0.05908  -0.0764  0.1231  1.0000  -4.5865   0.0000   0.0000   0.0000   0.2718
  15.200   1.5657   0.06707   0.06032  -0.0761  0.1197  1.0000  -4.6181   0.0000   0.0000   0.0000   0.2714
  15.300   1.5641   0.06840   0.06164  -0.0758  0.1168  1.0000  -4.6466   0.0000   0.0000   0.0000   0.2710
  15.400   1.5627   0.06971   0.06295  -0.0755  0.1141  1.0000  -4.6753   0.0000   0.0000   0.0000   0.2707
  15.500   1.5618   0.07098   0.06424  -0.0753  0.1110  1.0000  -4.7073   0.0000   0.0000   0.0000   0.2703
  15.600   1.5595   0.07238   0.06561  -0.0751  0.1089  1.0000  -4.7353   0.0000   0.0000   0.0000   0.2700
  15.700   1.5590   0.07361   0.06689  -0.0748  0.1059  1.0000  -4.7693   0.0000   0.0000   0.0000   0.2697
  15.800   1.5576   0.07495   0.06824  -0.0747  0.1035  1.0000  -4.8005   0.0000   0.0000   0.0000   0.2693
  15.900   1.5555   0.07634   0.06960  -0.0744  0.1015  1.0000  -4.8287   0.0000   0.0000   0.0000   0.2690
  16.000   1.5551   0.07759   0.07090  -0.0743  0.0988  1.0000  -4.8630   0.0000   0.0000   0.0000   0.2687
  16.100   1.5536   0.07895   0.07226  -0.0741  0.0967  1.0000  -4.8936   0.0000   0.0000   0.0000   0.2684
  16.200   1.5519   0.08032   0.07361  -0.0740  0.0949  1.0000  -4.9230   0.0000   0.0000   0.0000   0.2681
  16.300   1.5514   0.08160   0.07495  -0.0738  0.0925  1.0000  -4.9567   0.0000   0.0000   0.0000   0.2679
  16.400   1.5502   0.08296   0.07632  -0.0738  0.0906  1.0000  -4.9879   0.0000   0.0000   0.0000   0.2676
  16.500   1.5484   0.08434   0.07765  -0.0736  0.0891  1.0000  -5.0176   0.0000   0.0000   0.0000   0.2673
  16.600   1.5480   0.08564   0.07903  -0.0736  0.0869  1.0000  -5.0508   0.0000   0.0000   0.0000   0.2671
  16.700   1.5471   0.08699   0.08040  -0.0735  0.0850  1.0000  -5.0826   0.0000   0.0000   0.0000   0.2668
  16.800   1.5457   0.08835   0.08174  -0.0735  0.0835  1.0000  -5.1139   0.0000   0.0000   0.0000   0.2666
  16.900   1.5449   0.08967   0.08309  -0.0734  0.0818  1.0000  -5.1457   0.0000   0.0000   0.0000   0.2664
  17.000   1.5442   0.09103   0.08449  -0.0734  0.0800  1.0000  -5.1775   0.0000   0.0000   0.0000   0.2661
  17.100   1.5432   0.09237   0.08584  -0.0734  0.0785  1.0000  -5.2097   0.0000   0.0000   0.0000   0.2659
  17.200   1.5422   0.09364   0.08707  -0.0733  0.0772  1.0000  -5.2427   0.0000   0.0000   0.0000   0.2657
  17.300   1.5415   0.09500   0.08850  -0.0734  0.0756  1.0000  -5.2731   0.0000   0.0000   0.0000   0.2655
  17.400   1.5408   0.09635   0.08989  -0.0734  0.0740  1.0000  -5.3049   0.0000   0.0000   0.0000   0.2653
  17.500   1.5401   0.09767   0.09122  -0.0734  0.0727  1.0000  -5.3376   0.0000   0.0000   0.0000   0.2651
  17.600   1.5398   0.09885   0.09235  -0.0734  0.0715  1.0000  -5.3737   0.0000   0.0000   0.0000   0.2648
  17.700   1.5391   0.10022   0.09378  -0.0734  0.0701  1.0000  -5.4034   0.0000   0.0000   0.0000   0.2646
  17.800   1.5384   0.10160   0.09521  -0.0736  0.0687  1.0000  -5.4341   0.0000   0.0000   0.0000   0.2645
  17.900   1.5379   0.10290   0.09652  -0.0736  0.0675  1.0000  -5.4674   0.0000   0.0000   0.0000   0.2643
  18.000   1.5380   0.10406   0.09765  -0.0737  0.0664  1.0000  -5.5048   0.0000   0.0000   0.0000   0.2641
  18.100   1.5378   0.10529   0.09890  -0.0737  0.0652  1.0000  -5.5385   0.0000   0.0000   0.0000   0.2639
  18.200   1.5368   0.10675   0.10044  -0.0739  0.0639  1.0000  -5.5659   0.0000   0.0000   0.0000   0.2638
  18.300   1.5365   0.10808   0.10179  -0.0740  0.0627  1.0000  -5.5984   0.0000   0.0000   0.0000   0.2636
  18.400   1.5365   0.10929   0.10299  -0.0742  0.0617  1.0000  -5.6347   0.0000   0.0000   0.0000   0.2635
  18.500   1.5381   0.11013   0.10377  -0.0741  0.0606  1.0000  -5.6808   0.0000   0.0000   0.0000   0.2631
  18.600   1.5367   0.11168   0.10541  -0.0744  0.0596  1.0000  -5.7041   0.0000   0.0000   0.0000   0.2631
  18.700   1.5358   0.11314   0.10694  -0.0746  0.0585  1.0000  -5.7318   0.0000   0.0000   0.0000   0.2630
  18.800   1.5356   0.11445   0.10828  -0.0748  0.0574  1.0000  -5.7645   0.0000   0.0000   0.0000   0.2629
  18.900   1.5363   0.11556   0.10938  -0.0750  0.0565  1.0000  -5.8037   0.0000   0.0000   0.0000   0.2628
  19.000   1.5391   0.11615   0.10989  -0.0748  0.0556  1.0000  -5.8571   0.0000   0.0000   0.0000   0.2623
  19.100   1.5376   0.11773   0.11156  -0.0752  0.0547  1.0000  -5.8784   0.0000   0.0000   0.0000   0.2623
  19.200   1.5365   0.11926   0.11316  -0.0755  0.0537  1.0000  -5.9026   0.0000   0.0000   0.0000   0.2623
  19.300   1.5363   0.12056   0.11451  -0.0758  0.0529  1.0000  -5.9338   0.0000   0.0000   0.0000   0.2623
  19.400   1.5372   0.12165   0.11560  -0.0760  0.0520  1.0000  -5.9725   0.0000   0.0000   0.0000   0.2621
  19.500   1.5396   0.12239   0.11630  -0.0760  0.0512  1.0000  -6.0217   0.0000   0.0000   0.0000   0.2617
  19.600   1.5440   0.12271   0.11656  -0.0756  0.0504  1.0000  -6.0816   0.0000   0.0000   0.0000   0.2611
  19.700   1.5415   0.12449   0.11845  -0.0762  0.0497  1.0000  -6.0952   0.0000   0.0000   0.0000   0.2613
  19.800   1.5402   0.12606   0.12010  -0.0767  0.0490  1.0000  -6.1166   0.0000   0.0000   0.0000   0.2614
  19.900   1.5400   0.12741   0.12150  -0.0770  0.0483  1.0000  -6.1458   0.0000   0.0000   0.0000   0.2614
  20.000   1.5408   0.12855   0.12266  -0.0773  0.0476  1.0000  -6.1827   0.0000   0.0000   0.0000   0.2613


