xflr5 v6.57

 Calculated polar for: reaf

 1 1 Reynolds number fixed          Mach number fixed         

 xtrf =   1.000 (top)        1.000 (bottom)
 Mach =   0.000     Re =     0.240 e 6     Ncrit =   9.000

  alpha     CL        CD       CDp       Cm    Top Xtr Bot Xtr   Cpmin    Chinge    XCp    
 ------- -------- --------- --------- -------- ------- ------- -------- --------- ---------
  -9.900  -0.1143   0.09844   0.09481  -0.0874  0.8971  0.0562  -1.5716   0.0000   0.0000   0.0000  -0.5770
  -9.800  -0.1127   0.09721   0.09358  -0.0880  0.8953  0.0570  -1.5819   0.0000   0.0000   0.0000  -0.5937
  -9.700  -0.1344   0.09308   0.08948  -0.0953  0.8917  0.0589  -1.8715   0.0000   0.0000   0.0000  -0.5114
  -9.600  -0.1301   0.09190   0.08830  -0.0949  0.8902  0.0591  -1.8469   0.0000   0.0000   0.0000  -0.5331
  -9.500  -0.1231   0.09125   0.08762  -0.0938  0.8889  0.0593  -1.7882   0.0000   0.0000   0.0000  -0.5682
  -9.400  -0.1163   0.09058   0.08694  -0.0932  0.8873  0.0595  -1.7378   0.0000   0.0000   0.0000  -0.6094
  -9.300  -0.1102   0.08984   0.08621  -0.0929  0.8855  0.0599  -1.6974   0.0000   0.0000   0.0000  -0.6536
  -9.200  -0.1050   0.08907   0.08544  -0.0927  0.8837  0.0603  -1.6653   0.0000   0.0000   0.0000  -0.6960
  -9.100  -0.1008   0.08824   0.08459  -0.0927  0.8821  0.0609  -1.6422   0.0000   0.0000   0.0000  -0.7350
  -9.000  -0.0977   0.08728   0.08362  -0.0930  0.8807  0.0617  -1.6310   0.0000   0.0000   0.0000  -0.7672
  -8.900  -0.0957   0.08603   0.08237  -0.0939  0.8786  0.0629  -1.6387   0.0000   0.0000   0.0000  -0.7978
  -8.000  -0.1822   0.03966   0.03497  -0.1420  0.8557  0.0482  -3.3653   0.0000   0.0000   0.0000  -0.5645
  -7.900  -0.1744   0.03895   0.03428  -0.1421  0.8539  0.0484  -3.3124   0.0000   0.0000   0.0000  -0.6009
  -7.800  -0.1666   0.03833   0.03367  -0.1422  0.8520  0.0486  -3.2586   0.0000   0.0000   0.0000  -0.6413
  -7.700  -0.1583   0.03781   0.03315  -0.1423  0.8504  0.0488  -3.2005   0.0000   0.0000   0.0000  -0.6878
  -7.600  -0.1494   0.03747   0.03282  -0.1423  0.8491  0.0492  -3.1344   0.0000   0.0000   0.0000  -0.7430
  -7.500  -0.1395   0.03747   0.03285  -0.1422  0.8479  0.0497  -3.0522   0.0000   0.0000   0.0000  -0.8115
  -7.400  -0.1194   0.04187   0.03759  -0.1396  0.8473  0.0549  -2.7569   0.0000   0.0000   0.0000  -0.9664
  -7.300  -0.1099   0.04201   0.03775  -0.1393  0.8459  0.0558  -2.6766   0.0000   0.0000   0.0000  -1.0684
  -7.200  -0.1321   0.02825   0.02213  -0.1456  0.8420  0.0484  -3.3514   0.0000   0.0000   0.0000  -0.8974
  -7.100  -0.1216   0.02813   0.02214  -0.1456  0.8407  0.0489  -3.2669   0.0000   0.0000   0.0000  -0.9951
  -7.000  -0.1115   0.02782   0.02183  -0.1456  0.8396  0.0494  -3.2026   0.0000   0.0000   0.0000  -1.1074
  -6.900  -0.1018   0.02720   0.02112  -0.1457  0.8385  0.0499  -3.1593   0.0000   0.0000   0.0000  -1.2369
  -6.800  -0.0924   0.02646   0.02024  -0.1458  0.8373  0.0502  -3.1267   0.0000   0.0000   0.0000  -1.3882
  -6.700  -0.0836   0.02579   0.01946  -0.1458  0.8352  0.0505  -3.0963   0.0000   0.0000   0.0000  -1.5599
  -6.600  -0.0742   0.02512   0.01865  -0.1459  0.8335  0.0510  -3.0636   0.0000   0.0000   0.0000  -1.7886
  -6.500  -0.0644   0.02446   0.01784  -0.1459  0.8321  0.0514  -3.0297   0.0000   0.0000   0.0000  -2.0978
  -6.400  -0.0543   0.02381   0.01703  -0.1459  0.8309  0.0519  -2.9948   0.0000   0.0000   0.0000  -2.5350
  -6.300  -0.0438   0.02320   0.01624  -0.1459  0.8299  0.0525  -2.9591   0.0000   0.0000   0.0000  -3.1976
  -6.200  -0.0330   0.02273   0.01552  -0.1459  0.8290  0.0533  -2.9230   0.0000   0.0000   0.0000  -4.3235
  -6.100  -0.0237   0.02227   0.01509  -0.1459  0.8270  0.0540  -2.8690   0.0000   0.0000   0.0000  -6.1171
  -6.000  -0.0137   0.02203   0.01488  -0.1459  0.8252  0.0547  -2.8070   0.0000   0.0000   0.0000  -10.7525
  -5.900  -0.0032   0.02181   0.01467  -0.1459  0.8237  0.0555  -2.7491   0.0000   0.0000   0.0000  -46.3348
  -5.800   0.0075   0.02151   0.01432  -0.1459  0.8224  0.0564  -2.7003   0.0000   0.0000   0.0000  20.3372
  -5.700   0.0185   0.02115   0.01387  -0.1459  0.8214  0.0574  -2.6572   0.0000   0.0000   0.0000   8.4073
  -5.600   0.0296   0.02078   0.01336  -0.1458  0.8204  0.0582  -2.6175   0.0000   0.0000   0.0000   5.3266
  -5.500   0.0409   0.02045   0.01287  -0.1458  0.8195  0.0590  -2.5782   0.0000   0.0000   0.0000   3.9231
  -5.400   0.0501   0.02012   0.01261  -0.1457  0.8172  0.0598  -2.5303   0.0000   0.0000   0.0000   3.2470
  -5.300   0.0604   0.01989   0.01240  -0.1457  0.8155  0.0606  -2.4779   0.0000   0.0000   0.0000   2.7343
  -5.200   0.0711   0.01967   0.01217  -0.1457  0.8141  0.0616  -2.4258   0.0000   0.0000   0.0000   2.3578
  -5.100   0.0822   0.01945   0.01191  -0.1456  0.8129  0.0629  -2.3749   0.0000   0.0000   0.0000   2.0732
  -5.000   0.0936   0.01924   0.01159  -0.1456  0.8119  0.0643  -2.3274   0.0000   0.0000   0.0000   1.8504
  -4.900   0.1048   0.01892   0.01125  -0.1456  0.8110  0.0655  -2.2772   0.0000   0.0000   0.0000   1.6789
  -4.800   0.1156   0.01871   0.01107  -0.1457  0.8099  0.0668  -2.2221   0.0000   0.0000   0.0000   1.5443
  -4.700   0.1252   0.01861   0.01098  -0.1455  0.8076  0.0681  -2.1733   0.0000   0.0000   0.0000   1.4430
  -4.600   0.1359   0.01844   0.01078  -0.1455  0.8059  0.0696  -2.1253   0.0000   0.0000   0.0000   1.3486
  -4.500   0.1470   0.01827   0.01052  -0.1454  0.8046  0.0710  -2.0846   0.0000   0.0000   0.0000   1.2644
  -4.400   0.1578   0.01797   0.01029  -0.1454  0.8034  0.0724  -2.0371   0.0000   0.0000   0.0000   1.1947
  -4.300   0.1690   0.01779   0.01012  -0.1454  0.8024  0.0742  -1.9879   0.0000   0.0000   0.0000   1.1312
  -4.200   0.1807   0.01762   0.00990  -0.1455  0.8015  0.0763  -1.9417   0.0000   0.0000   0.0000   1.0742
  -4.100   0.1914   0.01745   0.00971  -0.1454  0.8001  0.0782  -1.8982   0.0000   0.0000   0.0000   1.0274
  -4.000   0.2010   0.01734   0.00968  -0.1453  0.7979  0.0800  -1.8532   0.0000   0.0000   0.0000   0.9894
  -3.900   0.2116   0.01722   0.00955  -0.1452  0.7962  0.0823  -1.8084   0.0000   0.0000   0.0000   0.9514
  -3.800   0.2227   0.01706   0.00936  -0.1452  0.7949  0.0847  -1.7650   0.0000   0.0000   0.0000   0.9159
  -3.700   0.2339   0.01687   0.00922  -0.1452  0.7938  0.0872  -1.7166   0.0000   0.0000   0.0000   0.8840
  -3.600   0.2455   0.01673   0.00904  -0.1453  0.7928  0.0904  -1.6702   0.0000   0.0000   0.0000   0.8538
  -3.500   0.2570   0.01653   0.00886  -0.1454  0.7919  0.0934  -1.6228   0.0000   0.0000   0.0000   0.8266
  -3.400   0.2675   0.01645   0.00879  -0.1453  0.7902  0.0970  -1.5785   0.0000   0.0000   0.0000   0.8035
  -3.300   0.2774   0.01636   0.00874  -0.1452  0.7881  0.1004  -1.5362   0.0000   0.0000   0.0000   0.7831
  -3.200   0.2882   0.01626   0.00865  -0.1452  0.7864  0.1049  -1.4913   0.0000   0.0000   0.0000   0.7627
  -3.100   0.2993   0.01611   0.00853  -0.1452  0.7851  0.1096  -1.4474   0.0000   0.0000   0.0000   0.7435
  -3.000   0.3108   0.01596   0.00839  -0.1453  0.7840  0.1155  -1.4059   0.0000   0.0000   0.0000   0.7251
  -2.900   0.3226   0.01581   0.00825  -0.1453  0.7830  0.1225  -1.3639   0.0000   0.0000   0.0000   0.7078
  -2.800   0.3344   0.01565   0.00810  -0.1455  0.7821  0.1306  -1.3215   0.0000   0.0000   0.0000   0.6916
  -2.700   0.3445   0.01559   0.00810  -0.1454  0.7802  0.1394  -1.2825   0.0000   0.0000   0.0000   0.6783
  -2.600   0.3546   0.01551   0.00810  -0.1453  0.7780  0.1496  -1.2432   0.0000   0.0000   0.0000   0.6657
  -2.500   0.3656   0.01540   0.00804  -0.1454  0.7764  0.1620  -1.2023   0.0000   0.0000   0.0000   0.6531
  -2.400   0.3769   0.01527   0.00795  -0.1455  0.7751  0.1770  -1.1606   0.0000   0.0000   0.0000   0.6408
  -2.300   0.3886   0.01512   0.00786  -0.1456  0.7740  0.1937  -1.1181   0.0000   0.0000   0.0000   0.6292
  -2.200   0.4004   0.01496   0.00777  -0.1457  0.7730  0.2118  -1.0752   0.0000   0.0000   0.0000   0.6181
  -2.100   0.4124   0.01482   0.00767  -0.1459  0.7722  0.2314  -1.0321   0.0000   0.0000   0.0000   0.6075
  -2.000   0.4218   0.01482   0.00776  -0.1457  0.7697  0.2505  -0.9945   0.0000   0.0000   0.0000   0.5990
  -1.900   0.4323   0.01477   0.00778  -0.1457  0.7677  0.2714  -0.9578   0.0000   0.0000   0.0000   0.5903
  -1.800   0.4433   0.01467   0.00776  -0.1458  0.7662  0.2940  -0.9199   0.0000   0.0000   0.0000   0.5817
  -1.700   0.4548   0.01454   0.00771  -0.1459  0.7649  0.3191  -0.8814   0.0000   0.0000   0.0000   0.5733
  -1.600   0.4665   0.01441   0.00765  -0.1460  0.7638  0.3460  -0.8428   0.0000   0.0000   0.0000   0.5652
  -1.500   0.4784   0.01426   0.00758  -0.1461  0.7629  0.3752  -0.8102   0.0000   0.0000   0.0000   0.5575
  -1.400   0.4898   0.01415   0.00756  -0.1462  0.7617  0.4062  -0.8177   0.0000   0.0000   0.0000   0.5502
  -1.300   0.4988   0.01417   0.00770  -0.1459  0.7590  0.4356  -0.8233   0.0000   0.0000   0.0000   0.5442
  -1.200   0.5092   0.01409   0.00773  -0.1459  0.7571  0.4687  -0.8302   0.0000   0.0000   0.0000   0.5378
  -1.100   0.5202   0.01398   0.00773  -0.1458  0.7557  0.5034  -0.8378   0.0000   0.0000   0.0000   0.5314
  -1.000   0.5315   0.01387   0.00771  -0.1458  0.7545  0.5391  -0.8457   0.0000   0.0000   0.0000   0.5251
  -0.900   0.5428   0.01374   0.00767  -0.1457  0.7534  0.5738  -0.8538   0.0000   0.0000   0.0000   0.5191
  -0.800   0.5541   0.01362   0.00764  -0.1456  0.7525  0.6078  -0.8619   0.0000   0.0000   0.0000   0.5131
  -0.700   0.5629   0.01364   0.00777  -0.1451  0.7502  0.6386  -0.8681   0.0000   0.0000   0.0000   0.5081
  -0.600   0.5723   0.01364   0.00786  -0.1448  0.7479  0.6691  -0.8747   0.0000   0.0000   0.0000   0.5030
  -0.500   0.5823   0.01358   0.00788  -0.1444  0.7463  0.6973  -0.8822   0.0000   0.0000   0.0000   0.4978
  -0.400   0.5927   0.01351   0.00786  -0.1441  0.7449  0.7241  -0.8899   0.0000   0.0000   0.0000   0.4927
  -0.300   0.6031   0.01342   0.00782  -0.1437  0.7438  0.7491  -0.8978   0.0000   0.0000   0.0000   0.4877
  -0.200   0.6136   0.01333   0.00776  -0.1433  0.7428  0.7734  -0.9059   0.0000   0.0000   0.0000   0.4828
  -0.100   0.6224   0.01332   0.00780  -0.1427  0.7410  0.7958  -0.9129   0.0000   0.0000   0.0000   0.4783
   0.000   0.6298   0.01336   0.00791  -0.1418  0.7383  0.8174  -0.9190   0.0000   0.0000   0.0000   0.4742
   0.100   0.6383   0.01331   0.00791  -0.1411  0.7365  0.8401  -0.9262   0.0000   0.0000   0.0000   0.4698
   0.200   0.6469   0.01323   0.00786  -0.1403  0.7351  0.8633  -0.9336   0.0000   0.0000   0.0000   0.4654
   0.300   0.6556   0.01312   0.00777  -0.1394  0.7338  0.8888  -0.9413   0.0000   0.0000   0.0000   0.4611
   0.400   0.6666   0.01299   0.00765  -0.1390  0.7328  0.9187  -0.9502   0.0000   0.0000   0.0000   0.4568
   0.500   0.6832   0.01290   0.00755  -0.1400  0.7315  0.9594  -0.9622   0.0000   0.0000   0.0000   0.4530
   0.600   0.6972   0.01297   0.00764  -0.1408  0.7285  1.0000  -0.9721   0.0000   0.0000   0.0000   0.4499
   0.700   0.7088   0.01300   0.00763  -0.1410  0.7266  1.0000  -0.9813   0.0000   0.0000   0.0000   0.4466
   0.800   0.7211   0.01299   0.00758  -0.1412  0.7250  1.0000  -0.9912   0.0000   0.0000   0.0000   0.4434
   0.900   0.7337   0.01297   0.00750  -0.1415  0.7237  1.0000  -1.0014   0.0000   0.0000   0.0000   0.4402
   1.000   0.7467   0.01293   0.00741  -0.1418  0.7226  1.0000  -1.0119   0.0000   0.0000   0.0000   0.4372
   1.100   0.7579   0.01297   0.00743  -0.1418  0.7207  1.0000  -1.0213   0.0000   0.0000   0.0000   0.4343
   1.200   0.7677   0.01307   0.00753  -0.1417  0.7179  1.0000  -1.0297   0.0000   0.0000   0.0000   0.4316
   1.300   0.7792   0.01309   0.00752  -0.1418  0.7160  1.0000  -1.0397   0.0000   0.0000   0.0000   0.4288
   1.400   0.7914   0.01307   0.00746  -0.1420  0.7144  1.0000  -1.0506   0.0000   0.0000   0.0000   0.4261
   1.500   0.8040   0.01304   0.00738  -0.1422  0.7131  1.0000  -1.0618   0.0000   0.0000   0.0000   0.4234
   1.600   0.8169   0.01300   0.00729  -0.1425  0.7119  1.0000  -1.0733   0.0000   0.0000   0.0000   0.4208
   1.700   0.8262   0.01311   0.00742  -0.1423  0.7090  1.0000  -1.0819   0.0000   0.0000   0.0000   0.4185
   1.800   0.8369   0.01315   0.00745  -0.1422  0.7066  1.0000  -1.0918   0.0000   0.0000   0.0000   0.4161
   1.900   0.8486   0.01315   0.00742  -0.1423  0.7048  1.0000  -1.1030   0.0000   0.0000   0.0000   0.4137
   2.000   0.8610   0.01312   0.00735  -0.1425  0.7033  1.0000  -1.1147   0.0000   0.0000   0.0000   0.4113
   2.100   0.8738   0.01307   0.00727  -0.1427  0.7020  1.0000  -1.1268   0.0000   0.0000   0.0000   0.4091
   2.200   0.8842   0.01314   0.00733  -0.1426  0.6996  1.0000  -1.1369   0.0000   0.0000   0.0000   0.4069
   2.300   0.8941   0.01321   0.00740  -0.1425  0.6968  1.0000  -1.1470   0.0000   0.0000   0.0000   0.4048
   2.400   0.9056   0.01321   0.00738  -0.1425  0.6948  1.0000  -1.1587   0.0000   0.0000   0.0000   0.4027
   2.500   0.9179   0.01318   0.00732  -0.1427  0.6931  1.0000  -1.1711   0.0000   0.0000   0.0000   0.4006
   2.600   0.9306   0.01314   0.00724  -0.1429  0.6917  1.0000  -1.1842   0.0000   0.0000   0.0000   0.3986
   2.700   0.9409   0.01319   0.00730  -0.1428  0.6892  1.0000  -1.1954   0.0000   0.0000   0.0000   0.3967
   2.800   0.9508   0.01326   0.00737  -0.1426  0.6863  1.0000  -1.2063   0.0000   0.0000   0.0000   0.3948
   2.900   0.9624   0.01325   0.00735  -0.1427  0.6841  1.0000  -1.2185   0.0000   0.0000   0.0000   0.3929
   3.000   0.9746   0.01322   0.00729  -0.1428  0.6824  1.0000  -1.2315   0.0000   0.0000   0.0000   0.3910
   3.100   0.9874   0.01317   0.00720  -0.1431  0.6809  1.0000  -1.2456   0.0000   0.0000   0.0000   0.3892
   3.200   0.9964   0.01327   0.00732  -0.1428  0.6776  1.0000  -1.2566   0.0000   0.0000   0.0000   0.3875
   3.300   1.0070   0.01330   0.00735  -0.1427  0.6749  1.0000  -1.2688   0.0000   0.0000   0.0000   0.3857
   3.400   1.0188   0.01328   0.00731  -0.1427  0.6728  1.0000  -1.2823   0.0000   0.0000   0.0000   0.3840
   3.500   1.0312   0.01325   0.00725  -0.1429  0.6711  1.0000  -1.2966   0.0000   0.0000   0.0000   0.3824
   3.600   1.0421   0.01328   0.00727  -0.1429  0.6687  1.0000  -1.3098   0.0000   0.0000   0.0000   0.3807
   3.700   1.0516   0.01334   0.00736  -0.1426  0.6654  1.0000  -1.3221   0.0000   0.0000   0.0000   0.3791
   3.800   1.0629   0.01334   0.00735  -0.1426  0.6630  1.0000  -1.3363   0.0000   0.0000   0.0000   0.3776
   3.900   1.0750   0.01331   0.00729  -0.1428  0.6610  1.0000  -1.3515   0.0000   0.0000   0.0000   0.3760
   4.000   1.0867   0.01331   0.00726  -0.1428  0.6588  1.0000  -1.3671   0.0000   0.0000   0.0000   0.3745
   4.100   1.0957   0.01339   0.00738  -0.1425  0.6552  1.0000  -1.3801   0.0000   0.0000   0.0000   0.3730
   4.200   1.1067   0.01340   0.00738  -0.1424  0.6525  1.0000  -1.3956   0.0000   0.0000   0.0000   0.3715
   4.300   1.1187   0.01338   0.00733  -0.1426  0.6503  1.0000  -1.4120   0.0000   0.0000   0.0000   0.3701
   4.400   1.1298   0.01339   0.00734  -0.1425  0.6477  1.0000  -1.4279   0.0000   0.0000   0.0000   0.3687
   4.500   1.1390   0.01346   0.00744  -0.1422  0.6441  1.0000  -1.4423   0.0000   0.0000   0.0000   0.3673
   4.600   1.1501   0.01347   0.00743  -0.1422  0.6413  1.0000  -1.4585   0.0000   0.0000   0.0000   0.3659
   4.700   1.1623   0.01344   0.00737  -0.1423  0.6391  1.0000  -1.4763   0.0000   0.0000   0.0000   0.3646
   4.800   1.1717   0.01351   0.00746  -0.1421  0.6356  1.0000  -1.4915   0.0000   0.0000   0.0000   0.3632
   4.900   1.1817   0.01355   0.00751  -0.1418  0.6322  1.0000  -1.5072   0.0000   0.0000   0.0000   0.3619
   5.000   1.1932   0.01354   0.00749  -0.1419  0.6295  1.0000  -1.5251   0.0000   0.0000   0.0000   0.3606
   5.100   1.2043   0.01356   0.00749  -0.1419  0.6266  1.0000  -1.5427   0.0000   0.0000   0.0000   0.3593
   5.200   1.2131   0.01364   0.00760  -0.1415  0.6226  1.0000  -1.5588   0.0000   0.0000   0.0000   0.3580
   5.300   1.2241   0.01364   0.00759  -0.1414  0.6194  1.0000  -1.5781   0.0000   0.0000   0.0000   0.3568
   5.400   1.2359   0.01364   0.00755  -0.1415  0.6167  1.0000  -1.5987   0.0000   0.0000   0.0000   0.3556
   5.500   1.2441   0.01373   0.00769  -0.1410  0.6123  1.0000  -1.6157   0.0000   0.0000   0.0000   0.3543
   5.600   1.2547   0.01376   0.00770  -0.1409  0.6088  1.0000  -1.6360   0.0000   0.0000   0.0000   0.3531
   5.700   1.2660   0.01377   0.00768  -0.1409  0.6058  1.0000  -1.6573   0.0000   0.0000   0.0000   0.3520
   5.800   1.2743   0.01386   0.00782  -0.1404  0.6012  1.0000  -1.6753   0.0000   0.0000   0.0000   0.3507
   5.900   1.2848   0.01388   0.00783  -0.1403  0.5976  1.0000  -1.6965   0.0000   0.0000   0.0000   0.3496
   6.000   1.2951   0.01393   0.00786  -0.1402  0.5939  1.0000  -1.7175   0.0000   0.0000   0.0000   0.3484
   6.100   1.3039   0.01401   0.00796  -0.1398  0.5894  1.0000  -1.7372   0.0000   0.0000   0.0000   0.3473
   6.200   1.3146   0.01404   0.00797  -0.1397  0.5858  1.0000  -1.7598   0.0000   0.0000   0.0000   0.3462
   6.300   1.3235   0.01412   0.00807  -0.1393  0.5814  1.0000  -1.7810   0.0000   0.0000   0.0000   0.3450
   6.400   1.3329   0.01419   0.00814  -0.1390  0.5770  1.0000  -1.8066   0.0000   0.0000   0.0000   0.3439
   6.500   1.3435   0.01423   0.00815  -0.1389  0.5734  1.0000  -1.8341   0.0000   0.0000   0.0000   0.3428
   6.600   1.3514   0.01434   0.00830  -0.1384  0.5682  1.0000  -1.8581   0.0000   0.0000   0.0000   0.3417
   6.700   1.3615   0.01440   0.00834  -0.1382  0.5642  1.0000  -1.8862   0.0000   0.0000   0.0000   0.3406
   6.800   1.3699   0.01450   0.00845  -0.1378  0.5592  1.0000  -1.9135   0.0000   0.0000   0.0000   0.3395
   6.900   1.3790   0.01458   0.00853  -0.1374  0.5545  1.0000  -1.9429   0.0000   0.0000   0.0000   0.3385
   7.000   1.3880   0.01467   0.00861  -0.1371  0.5497  1.0000  -1.9725   0.0000   0.0000   0.0000   0.3374
   7.100   1.3963   0.01478   0.00872  -0.1366  0.5445  1.0000  -2.0023   0.0000   0.0000   0.0000   0.3363
   7.200   1.4053   0.01487   0.00880  -0.1362  0.5397  1.0000  -2.0333   0.0000   0.0000   0.0000   0.3353
   7.300   1.4131   0.01499   0.00893  -0.1357  0.5341  1.0000  -2.0624   0.0000   0.0000   0.0000   0.3342
   7.400   1.4218   0.01510   0.00902  -0.1353  0.5292  1.0000  -2.0937   0.0000   0.0000   0.0000   0.3332
   7.500   1.4293   0.01523   0.00917  -0.1347  0.5234  1.0000  -2.1238   0.0000   0.0000   0.0000   0.3321
   7.600   1.4377   0.01536   0.00927  -0.1343  0.5183  1.0000  -2.1562   0.0000   0.0000   0.0000   0.3311
   7.700   1.4448   0.01550   0.00942  -0.1336  0.5124  1.0000  -2.1876   0.0000   0.0000   0.0000   0.3301
   7.800   1.4527   0.01564   0.00954  -0.1331  0.5072  1.0000  -2.2207   0.0000   0.0000   0.0000   0.3290
   7.900   1.4596   0.01580   0.00970  -0.1324  0.5012  1.0000  -2.2519   0.0000   0.0000   0.0000   0.3280
   8.000   1.4669   0.01596   0.00984  -0.1318  0.4958  1.0000  -2.2841   0.0000   0.0000   0.0000   0.3269
   8.100   1.4734   0.01613   0.01001  -0.1311  0.4897  1.0000  -2.3150   0.0000   0.0000   0.0000   0.3259
   8.200   1.4800   0.01630   0.01019  -0.1304  0.4840  1.0000  -2.3477   0.0000   0.0000   0.0000   0.3248
   8.300   1.4861   0.01649   0.01036  -0.1296  0.4779  1.0000  -2.3798   0.0000   0.0000   0.0000   0.3238
   8.400   1.4915   0.01668   0.01055  -0.1287  0.4717  1.0000  -2.4104   0.0000   0.0000   0.0000   0.3227
   8.500   1.4965   0.01689   0.01072  -0.1277  0.4658  1.0000  -2.4408   0.0000   0.0000   0.0000   0.3216
   8.600   1.5008   0.01711   0.01095  -0.1267  0.4593  1.0000  -2.4696   0.0000   0.0000   0.0000   0.3205
   8.700   1.5056   0.01734   0.01115  -0.1257  0.4533  1.0000  -2.4997   0.0000   0.0000   0.0000   0.3194
   8.800   1.5097   0.01759   0.01140  -0.1246  0.4466  1.0000  -2.5287   0.0000   0.0000   0.0000   0.3183
   8.900   1.5140   0.01786   0.01165  -0.1236  0.4404  1.0000  -2.5671   0.0000   0.0000   0.0000   0.3172
   9.000   1.5180   0.01814   0.01191  -0.1226  0.4341  1.0000  -2.6050   0.0000   0.0000   0.0000   0.3162
   9.100   1.5219   0.01843   0.01220  -0.1216  0.4277  1.0000  -2.6426   0.0000   0.0000   0.0000   0.3151
   9.300   1.5294   0.01907   0.01282  -0.1196  0.4152  1.0000  -2.7177   0.0000   0.0000   0.0000   0.3131
   9.400   1.5330   0.01941   0.01313  -0.1186  0.4092  1.0000  -2.7552   0.0000   0.0000   0.0000   0.3121
   9.500   1.5364   0.01976   0.01348  -0.1176  0.4028  1.0000  -2.7921   0.0000   0.0000   0.0000   0.3111
   9.600   1.5398   0.02013   0.01384  -0.1166  0.3966  1.0000  -2.8292   0.0000   0.0000   0.0000   0.3101
   9.700   1.5429   0.02052   0.01421  -0.1156  0.3905  1.0000  -2.8656   0.0000   0.0000   0.0000   0.3091
   9.800   1.5461   0.02092   0.01461  -0.1147  0.3841  1.0000  -2.9025   0.0000   0.0000   0.0000   0.3082
   9.900   1.5489   0.02134   0.01500  -0.1137  0.3782  1.0000  -2.9384   0.0000   0.0000   0.0000   0.3072
  10.000   1.5519   0.02177   0.01543  -0.1128  0.3716  1.0000  -2.9749   0.0000   0.0000   0.0000   0.3063
  10.100   1.5547   0.02221   0.01586  -0.1118  0.3656  1.0000  -3.0110   0.0000   0.0000   0.0000   0.3054
  10.200   1.5573   0.02268   0.01632  -0.1109  0.3594  1.0000  -3.0466   0.0000   0.0000   0.0000   0.3044
  10.300   1.5601   0.02315   0.01679  -0.1100  0.3531  1.0000  -3.0829   0.0000   0.0000   0.0000   0.3036
  10.500   1.5650   0.02415   0.01776  -0.1082  0.3409  1.0000  -3.1540   0.0000   0.0000   0.0000   0.3018
  10.600   1.5672   0.02467   0.01827  -0.1073  0.3351  1.0000  -3.1890   0.0000   0.0000   0.0000   0.3009
  10.700   1.5694   0.02521   0.01880  -0.1064  0.3289  1.0000  -3.2240   0.0000   0.0000   0.0000   0.3001
  10.800   1.5716   0.02575   0.01934  -0.1055  0.3229  1.0000  -3.2594   0.0000   0.0000   0.0000   0.2992
  10.900   1.5732   0.02634   0.01990  -0.1046  0.3171  1.0000  -3.2929   0.0000   0.0000   0.0000   0.2984
  11.000   1.5756   0.02690   0.02047  -0.1038  0.3108  1.0000  -3.3285   0.0000   0.0000   0.0000   0.2976
  11.100   1.5770   0.02751   0.02106  -0.1029  0.3052  1.0000  -3.3632   0.0000   0.0000   0.0000   0.2967
  11.200   1.5789   0.02811   0.02166  -0.1020  0.2990  1.0000  -3.3998   0.0000   0.0000   0.0000   0.2959
  11.300   1.5805   0.02873   0.02227  -0.1012  0.2932  1.0000  -3.4359   0.0000   0.0000   0.0000   0.2951
  11.400   1.5817   0.02939   0.02292  -0.1003  0.2875  1.0000  -3.4706   0.0000   0.0000   0.0000   0.2943
  11.500   1.5835   0.03002   0.02355  -0.0995  0.2814  1.0000  -3.5074   0.0000   0.0000   0.0000   0.2936
  11.600   1.5843   0.03072   0.02423  -0.0987  0.2760  1.0000  -3.5413   0.0000   0.0000   0.0000   0.2928
  11.700   1.5859   0.03139   0.02489  -0.0979  0.2699  1.0000  -3.5775   0.0000   0.0000   0.0000   0.2920
  11.800   1.5869   0.03208   0.02558  -0.0971  0.2644  1.0000  -3.6123   0.0000   0.0000   0.0000   0.2913
  11.900   1.5876   0.03282   0.02630  -0.0962  0.2588  1.0000  -3.6459   0.0000   0.0000   0.0000   0.2905
  12.000   1.5889   0.03352   0.02701  -0.0955  0.2530  1.0000  -3.6814   0.0000   0.0000   0.0000   0.2898
  12.200   1.5904   0.03502   0.02850  -0.0939  0.2420  1.0000  -3.7492   0.0000   0.0000   0.0000   0.2884
  12.300   1.5908   0.03581   0.02927  -0.0931  0.2367  1.0000  -3.7821   0.0000   0.0000   0.0000   0.2876
  12.400   1.5914   0.03661   0.03006  -0.0924  0.2312  1.0000  -3.8156   0.0000   0.0000   0.0000   0.2870
  12.500   1.5921   0.03740   0.03085  -0.0917  0.2258  1.0000  -3.8495   0.0000   0.0000   0.0000   0.2863
  12.600   1.5918   0.03827   0.03171  -0.0909  0.2207  1.0000  -3.8804   0.0000   0.0000   0.0000   0.2856
  12.700   1.5928   0.03907   0.03252  -0.0903  0.2151  1.0000  -3.9150   0.0000   0.0000   0.0000   0.2849
  12.800   1.5925   0.03998   0.03341  -0.0895  0.2101  1.0000  -3.9457   0.0000   0.0000   0.0000   0.2843
  12.900   1.5929   0.04084   0.03427  -0.0889  0.2045  1.0000  -3.9788   0.0000   0.0000   0.0000   0.2836
  13.000   1.5930   0.04174   0.03517  -0.0882  0.1993  1.0000  -4.0109   0.0000   0.0000   0.0000   0.2830
  13.100   1.5924   0.04272   0.03612  -0.0876  0.1943  1.0000  -4.0408   0.0000   0.0000   0.0000   0.2824
  13.200   1.5929   0.04362   0.03703  -0.0870  0.1889  1.0000  -4.0739   0.0000   0.0000   0.0000   0.2818
  13.300   1.5922   0.04463   0.03802  -0.0864  0.1841  1.0000  -4.1034   0.0000   0.0000   0.0000   0.2812
  13.400   1.5922   0.04559   0.03899  -0.0858  0.1788  1.0000  -4.1349   0.0000   0.0000   0.0000   0.2806
  13.500   1.5920   0.04658   0.03997  -0.0852  0.1738  1.0000  -4.1658   0.0000   0.0000   0.0000   0.2801
  13.600   1.5910   0.04766   0.04103  -0.0846  0.1692  1.0000  -4.1939   0.0000   0.0000   0.0000   0.2795
  13.700   1.5911   0.04864   0.04201  -0.0841  0.1642  1.0000  -4.2259   0.0000   0.0000   0.0000   0.2790
  13.800   1.5898   0.04977   0.04312  -0.0835  0.1600  1.0000  -4.2528   0.0000   0.0000   0.0000   0.2784
  13.900   1.5899   0.05077   0.04414  -0.0831  0.1551  1.0000  -4.2848   0.0000   0.0000   0.0000   0.2779
  14.000   1.5890   0.05189   0.04525  -0.0826  0.1509  1.0000  -4.3152   0.0000   0.0000   0.0000   0.2774
  14.100   1.5884   0.05298   0.04634  -0.0821  0.1465  1.0000  -4.3468   0.0000   0.0000   0.0000   0.2769
  14.200   1.5878   0.05409   0.04745  -0.0816  0.1425  1.0000  -4.3782   0.0000   0.0000   0.0000   0.2764
  14.300   1.5868   0.05525   0.04861  -0.0812  0.1385  1.0000  -4.4081   0.0000   0.0000   0.0000   0.2759
  14.400   1.5864   0.05637   0.04973  -0.0808  0.1346  1.0000  -4.4398   0.0000   0.0000   0.0000   0.2755
  14.500   1.5852   0.05757   0.05093  -0.0803  0.1309  1.0000  -4.4688   0.0000   0.0000   0.0000   0.2750
  14.600   1.5846   0.05871   0.05208  -0.0800  0.1273  1.0000  -4.4999   0.0000   0.0000   0.0000   0.2746
  14.700   1.5833   0.05994   0.05330  -0.0796  0.1239  1.0000  -4.5285   0.0000   0.0000   0.0000   0.2741
  14.800   1.5824   0.06113   0.05450  -0.0792  0.1205  1.0000  -4.5582   0.0000   0.0000   0.0000   0.2737
  14.900   1.5813   0.06235   0.05572  -0.0789  0.1172  1.0000  -4.5895   0.0000   0.0000   0.0000   0.2733
  15.000   1.5798   0.06364   0.05701  -0.0785  0.1144  1.0000  -4.6188   0.0000   0.0000   0.0000   0.2729
  15.100   1.5793   0.06482   0.05821  -0.0782  0.1112  1.0000  -4.6521   0.0000   0.0000   0.0000   0.2725
  15.200   1.5769   0.06622   0.05959  -0.0779  0.1088  1.0000  -4.6782   0.0000   0.0000   0.0000   0.2722
  15.300   1.5769   0.06737   0.06077  -0.0776  0.1057  1.0000  -4.7154   0.0000   0.0000   0.0000   0.2718
  15.400   1.5752   0.06871   0.06212  -0.0774  0.1032  1.0000  -4.7463   0.0000   0.0000   0.0000   0.2714
  15.500   1.5737   0.07005   0.06346  -0.0771  0.1008  1.0000  -4.7774   0.0000   0.0000   0.0000   0.2711
  15.600   1.5732   0.07128   0.06472  -0.0769  0.0981  1.0000  -4.8126   0.0000   0.0000   0.0000   0.2707
  15.700   1.5710   0.07270   0.06613  -0.0767  0.0961  1.0000  -4.8414   0.0000   0.0000   0.0000   0.2704
  15.800   1.5700   0.07399   0.06745  -0.0765  0.0938  1.0000  -4.8744   0.0000   0.0000   0.0000   0.2701
  15.900   1.5692   0.07528   0.06876  -0.0763  0.0915  1.0000  -4.9083   0.0000   0.0000   0.0000   0.2698
  16.000   1.5670   0.07672   0.07019  -0.0761  0.0898  1.0000  -4.9363   0.0000   0.0000   0.0000   0.2695
  16.100   1.5658   0.07805   0.07154  -0.0760  0.0877  1.0000  -4.9684   0.0000   0.0000   0.0000   0.2692
  16.200   1.5652   0.07933   0.07286  -0.0758  0.0856  1.0000  -5.0029   0.0000   0.0000   0.0000   0.2689
  16.300   1.5632   0.08078   0.07430  -0.0757  0.0840  1.0000  -5.0316   0.0000   0.0000   0.0000   0.2687
  16.400   1.5612   0.08222   0.07574  -0.0756  0.0825  1.0000  -5.0600   0.0000   0.0000   0.0000   0.2684
  16.500   1.5610   0.08348   0.07706  -0.0755  0.0804  1.0000  -5.0956   0.0000   0.0000   0.0000   0.2681
  16.600   1.5597   0.08488   0.07847  -0.0755  0.0788  1.0000  -5.1268   0.0000   0.0000   0.0000   0.2679
  16.700   1.5575   0.08637   0.07995  -0.0754  0.0775  1.0000  -5.1543   0.0000   0.0000   0.0000   0.2677
  16.800   1.5565   0.08774   0.08134  -0.0754  0.0759  1.0000  -5.1859   0.0000   0.0000   0.0000   0.2675
  16.900   1.5559   0.08907   0.08272  -0.0754  0.0743  1.0000  -5.2194   0.0000   0.0000   0.0000   0.2672
  17.000   1.5545   0.09049   0.08415  -0.0754  0.0729  1.0000  -5.2501   0.0000   0.0000   0.0000   0.2670
  17.100   1.5524   0.09198   0.08563  -0.0754  0.0717  1.0000  -5.2777   0.0000   0.0000   0.0000   0.2669
  17.200   1.5515   0.09334   0.08703  -0.0754  0.0703  1.0000  -5.3093   0.0000   0.0000   0.0000   0.2666
  17.300   1.5508   0.09471   0.08845  -0.0754  0.0688  1.0000  -5.3415   0.0000   0.0000   0.0000   0.2665
  17.400   1.5496   0.09613   0.08988  -0.0755  0.0676  1.0000  -5.3725   0.0000   0.0000   0.0000   0.2663
  17.500   1.5479   0.09758   0.09132  -0.0755  0.0665  1.0000  -5.4015   0.0000   0.0000   0.0000   0.2661
  17.600   1.5465   0.09898   0.09273  -0.0756  0.0654  1.0000  -5.4309   0.0000   0.0000   0.0000   0.2660
  17.700   1.5459   0.10036   0.09417  -0.0757  0.0640  1.0000  -5.4625   0.0000   0.0000   0.0000   0.2658
  17.800   1.5448   0.10178   0.09563  -0.0758  0.0628  1.0000  -5.4933   0.0000   0.0000   0.0000   0.2657
  17.900   1.5436   0.10321   0.09706  -0.0759  0.0617  1.0000  -5.5238   0.0000   0.0000   0.0000   0.2656
  18.000   1.5423   0.10458   0.09840  -0.0760  0.0608  1.0000  -5.5548   0.0000   0.0000   0.0000   0.2654
  18.100   1.5414   0.10600   0.09987  -0.0761  0.0596  1.0000  -5.5845   0.0000   0.0000   0.0000   0.2653
  18.200   1.5406   0.10743   0.10136  -0.0763  0.0584  1.0000  -5.6146   0.0000   0.0000   0.0000   0.2652
  18.300   1.5398   0.10885   0.10280  -0.0765  0.0574  1.0000  -5.6456   0.0000   0.0000   0.0000   0.2651
  18.400   1.5388   0.11024   0.10420  -0.0767  0.0565  1.0000  -5.6772   0.0000   0.0000   0.0000   0.2650
  18.500   1.5383   0.11150   0.10542  -0.0768  0.0556  1.0000  -5.7117   0.0000   0.0000   0.0000   0.2648
  18.600   1.5375   0.11292   0.10690  -0.0771  0.0546  1.0000  -5.7403   0.0000   0.0000   0.0000   0.2648
  18.700   1.5366   0.11438   0.10842  -0.0773  0.0536  1.0000  -5.7690   0.0000   0.0000   0.0000   0.2647
  18.800   1.5360   0.11577   0.10984  -0.0776  0.0527  1.0000  -5.8001   0.0000   0.0000   0.0000   0.2646
  18.900   1.5357   0.11710   0.11118  -0.0778  0.0518  1.0000  -5.8334   0.0000   0.0000   0.0000   0.2646
  19.000   1.5357   0.11831   0.11237  -0.0780  0.0511  1.0000  -5.8698   0.0000   0.0000   0.0000   0.2644
  19.100   1.5362   0.11939   0.11343  -0.0781  0.0503  1.0000  -5.9072   0.0000   0.0000   0.0000   0.2642
  19.200   1.5351   0.12092   0.11504  -0.0784  0.0494  1.0000  -5.9322   0.0000   0.0000   0.0000   0.2642
  19.300   1.5346   0.12232   0.11650  -0.0788  0.0486  1.0000  -5.9613   0.0000   0.0000   0.0000   0.2642
  19.400   1.5343   0.12366   0.11786  -0.0791  0.0478  1.0000  -5.9931   0.0000   0.0000   0.0000   0.2641
  19.500   1.5344   0.12490   0.11911  -0.0794  0.0471  1.0000  -6.0285   0.0000   0.0000   0.0000   0.2640
  19.600   1.5353   0.12594   0.12013  -0.0795  0.0464  1.0000  -6.0696   0.0000   0.0000   0.0000   0.2639
  19.700   1.5373   0.12669   0.12084  -0.0795  0.0457  1.0000  -6.1165   0.0000   0.0000   0.0000   0.2635
  19.800   1.5356   0.12838   0.12263  -0.0800  0.0451  1.0000  -6.1357   0.0000   0.0000   0.0000   0.2637
  19.900   1.5347   0.12989   0.12421  -0.0805  0.0444  1.0000  -6.1610   0.0000   0.0000   0.0000   0.2637
  20.000   1.5344   0.13128   0.12563  -0.0809  0.0437  1.0000  -6.1909   0.0000   0.0000   0.0000   0.2638


