xflr5 v6.57

 Calculated polar for: reaf

 1 1 Reynolds number fixed          Mach number fixed         

 xtrf =   1.000 (top)        1.000 (bottom)
 Mach =   0.000     Re =     0.400 e 6     Ncrit =   9.000

  alpha     CL        CD       CDp       Cm    Top Xtr Bot Xtr   Cpmin    Chinge    XCp    
 ------- -------- --------- --------- -------- ------- ------- -------- --------- ---------
  -9.700  -0.3519   0.03827   0.03444  -0.1327  0.8430  0.0302  -4.8705   0.0000   0.0000   0.0000  -0.1511
  -9.600  -0.3462   0.03737   0.03349  -0.1334  0.8414  0.0303  -4.8256   0.0000   0.0000   0.0000  -0.1595
  -9.500  -0.3462   0.03508   0.03100  -0.1353  0.8397  0.0303  -4.8685   0.0000   0.0000   0.0000  -0.1647
  -9.300  -0.2371   0.06088   0.05771  -0.1037  0.8412  0.0339  -3.3976   0.0000   0.0000   0.0000  -0.2190
  -9.200  -0.2347   0.05983   0.05665  -0.1046  0.8396  0.0341  -3.3716   0.0000   0.0000   0.0000  -0.2274
  -9.100  -0.2319   0.05866   0.05547  -0.1057  0.8382  0.0341  -3.3516   0.0000   0.0000   0.0000  -0.2375
  -9.000  -0.2289   0.05743   0.05426  -0.1071  0.8365  0.0342  -3.3322   0.0000   0.0000   0.0000  -0.2493
  -8.900  -0.2265   0.05625   0.05308  -0.1085  0.8345  0.0343  -3.3143   0.0000   0.0000   0.0000  -0.2603
  -8.800  -0.2231   0.05498   0.05181  -0.1103  0.8327  0.0344  -3.2939   0.0000   0.0000   0.0000  -0.2755
  -8.700  -0.2178   0.05360   0.05042  -0.1126  0.8312  0.0346  -3.2667   0.0000   0.0000   0.0000  -0.2983
  -8.600  -0.2115   0.05225   0.04905  -0.1151  0.8299  0.0349  -3.2328   0.0000   0.0000   0.0000  -0.3260
  -8.500  -0.2041   0.05102   0.04780  -0.1177  0.8286  0.0352  -3.1893   0.0000   0.0000   0.0000  -0.3589
  -8.400  -0.1956   0.05044   0.04722  -0.1193  0.8268  0.0356  -3.1228   0.0000   0.0000   0.0000  -0.3930
  -8.300  -0.1805   0.05469   0.05150  -0.1131  0.8256  0.0372  -2.8858   0.0000   0.0000   0.0000  -0.4113
  -8.200  -0.2478   0.02329   0.01746  -0.1410  0.8213  0.0338  -4.3647   0.0000   0.0000   0.0000  -0.3471
  -8.100  -0.2388   0.02243   0.01647  -0.1411  0.8203  0.0341  -4.3175   0.0000   0.0000   0.0000  -0.3700
  -8.000  -0.2291   0.02183   0.01584  -0.1413  0.8191  0.0344  -4.2513   0.0000   0.0000   0.0000  -0.3961
  -7.900  -0.2191   0.02144   0.01544  -0.1414  0.8175  0.0346  -4.1833   0.0000   0.0000   0.0000  -0.4257
  -7.800  -0.2088   0.02111   0.01510  -0.1414  0.8160  0.0349  -4.1148   0.0000   0.0000   0.0000  -0.4589
  -7.700  -0.1984   0.02080   0.01476  -0.1415  0.8147  0.0353  -4.0472   0.0000   0.0000   0.0000  -0.4959
  -7.600  -0.1879   0.02050   0.01443  -0.1416  0.8135  0.0356  -3.9801   0.0000   0.0000   0.0000  -0.5374
  -7.500  -0.1774   0.02016   0.01403  -0.1416  0.8124  0.0360  -3.9164   0.0000   0.0000   0.0000  -0.5839
  -7.400  -0.1668   0.01981   0.01361  -0.1417  0.8113  0.0364  -3.8554   0.0000   0.0000   0.0000  -0.6366
  -7.300  -0.1561   0.01947   0.01318  -0.1418  0.8104  0.0369  -3.7953   0.0000   0.0000   0.0000  -0.6970
  -7.200  -0.1456   0.01914   0.01276  -0.1418  0.8089  0.0374  -3.7381   0.0000   0.0000   0.0000  -0.7650
  -7.100  -0.1350   0.01884   0.01235  -0.1419  0.8074  0.0379  -3.6817   0.0000   0.0000   0.0000  -0.8448
  -7.000  -0.1242   0.01857   0.01196  -0.1419  0.8060  0.0384  -3.6244   0.0000   0.0000   0.0000  -0.9397
  -6.900  -0.1140   0.01803   0.01144  -0.1420  0.8048  0.0389  -3.5632   0.0000   0.0000   0.0000  -1.0454
  -6.800  -0.1033   0.01776   0.01117  -0.1421  0.8036  0.0393  -3.4934   0.0000   0.0000   0.0000  -1.1797
  -6.700  -0.0924   0.01753   0.01093  -0.1421  0.8026  0.0397  -3.4242   0.0000   0.0000   0.0000  -1.3482
  -6.600  -0.0813   0.01731   0.01066  -0.1422  0.8016  0.0402  -3.3573   0.0000   0.0000   0.0000  -1.5643
  -6.500  -0.0703   0.01708   0.01040  -0.1422  0.8006  0.0407  -3.2923   0.0000   0.0000   0.0000  -1.8472
  -6.400  -0.0596   0.01685   0.01014  -0.1422  0.7990  0.0413  -3.2299   0.0000   0.0000   0.0000  -2.2240
  -6.300  -0.0487   0.01662   0.00986  -0.1423  0.7975  0.0419  -3.1688   0.0000   0.0000   0.0000  -2.7756
  -6.200  -0.0377   0.01640   0.00958  -0.1423  0.7962  0.0425  -3.1116   0.0000   0.0000   0.0000  -3.6602
  -6.100  -0.0264   0.01623   0.00932  -0.1423  0.7949  0.0430  -3.0579   0.0000   0.0000   0.0000  -5.3190
  -6.000  -0.0159   0.01582   0.00892  -0.1423  0.7938  0.0436  -3.0040   0.0000   0.0000   0.0000  -9.0205
  -5.900  -0.0049   0.01560   0.00871  -0.1424  0.7928  0.0442  -2.9420   0.0000   0.0000   0.0000  -29.8093
  -5.800   0.0063   0.01544   0.00855  -0.1425  0.7919  0.0449  -2.8791   0.0000   0.0000   0.0000  23.4571
  -5.700   0.0174   0.01531   0.00840  -0.1425  0.7906  0.0457  -2.8187   0.0000   0.0000   0.0000   8.6816
  -5.600   0.0284   0.01516   0.00823  -0.1425  0.7891  0.0466  -2.7612   0.0000   0.0000   0.0000   5.4282
  -5.500   0.0395   0.01503   0.00805  -0.1425  0.7876  0.0475  -2.7052   0.0000   0.0000   0.0000   3.9667
  -5.400   0.0506   0.01483   0.00782  -0.1426  0.7863  0.0483  -2.6507   0.0000   0.0000   0.0000   3.1512
  -5.300   0.0614   0.01457   0.00758  -0.1426  0.7851  0.0491  -2.5928   0.0000   0.0000   0.0000   2.6399
  -5.200   0.0726   0.01441   0.00743  -0.1427  0.7840  0.0499  -2.5329   0.0000   0.0000   0.0000   2.2716
  -5.100   0.0839   0.01426   0.00727  -0.1427  0.7830  0.0508  -2.4742   0.0000   0.0000   0.0000   1.9986
  -5.000   0.0954   0.01413   0.00709  -0.1428  0.7821  0.0519  -2.4170   0.0000   0.0000   0.0000   1.7883
  -4.900   0.1066   0.01401   0.00694  -0.1428  0.7808  0.0529  -2.3618   0.0000   0.0000   0.0000   1.6261
  -4.800   0.1174   0.01382   0.00676  -0.1428  0.7792  0.0539  -2.3080   0.0000   0.0000   0.0000   1.4991
  -4.700   0.1283   0.01365   0.00663  -0.1429  0.7777  0.0550  -2.2523   0.0000   0.0000   0.0000   1.3925
  -4.600   0.1395   0.01354   0.00652  -0.1429  0.7764  0.0562  -2.1990   0.0000   0.0000   0.0000   1.3003
  -4.500   0.1509   0.01344   0.00639  -0.1430  0.7752  0.0577  -2.1475   0.0000   0.0000   0.0000   1.2208
  -4.400   0.1624   0.01335   0.00624  -0.1430  0.7741  0.0590  -2.0974   0.0000   0.0000   0.0000   1.1516
  -4.300   0.1736   0.01314   0.00606  -0.1431  0.7731  0.0604  -2.0461   0.0000   0.0000   0.0000   1.0937
  -4.200   0.1851   0.01303   0.00595  -0.1432  0.7722  0.0619  -1.9934   0.0000   0.0000   0.0000   1.0411
  -4.100   0.1962   0.01294   0.00585  -0.1432  0.7706  0.0636  -1.9440   0.0000   0.0000   0.0000   0.9962
  -4.000   0.2072   0.01283   0.00574  -0.1432  0.7690  0.0653  -1.8956   0.0000   0.0000   0.0000   0.9560
  -3.900   0.2183   0.01269   0.00563  -0.1433  0.7676  0.0671  -1.8446   0.0000   0.0000   0.0000   0.9201
  -3.800   0.2297   0.01260   0.00554  -0.1433  0.7662  0.0692  -1.7938   0.0000   0.0000   0.0000   0.8868
  -3.700   0.2411   0.01249   0.00541  -0.1434  0.7650  0.0715  -1.7446   0.0000   0.0000   0.0000   0.8564
  -3.600   0.2525   0.01236   0.00530  -0.1435  0.7639  0.0738  -1.6938   0.0000   0.0000   0.0000   0.8290
  -3.500   0.2642   0.01228   0.00519  -0.1436  0.7630  0.0767  -1.6439   0.0000   0.0000   0.0000   0.8035
  -3.400   0.2758   0.01215   0.00507  -0.1437  0.7620  0.0795  -1.5944   0.0000   0.0000   0.0000   0.7803
  -3.300   0.2867   0.01208   0.00503  -0.1437  0.7602  0.0829  -1.5463   0.0000   0.0000   0.0000   0.7598
  -3.200   0.2978   0.01198   0.00495  -0.1437  0.7586  0.0865  -1.4984   0.0000   0.0000   0.0000   0.7407
  -3.100   0.3091   0.01190   0.00487  -0.1438  0.7572  0.0910  -1.4536   0.0000   0.0000   0.0000   0.7225
  -3.000   0.3205   0.01178   0.00479  -0.1439  0.7559  0.0959  -1.4092   0.0000   0.0000   0.0000   0.7057
  -2.900   0.3320   0.01168   0.00470  -0.1439  0.7547  0.1016  -1.3651   0.0000   0.0000   0.0000   0.6899
  -2.800   0.3436   0.01158   0.00461  -0.1440  0.7536  0.1086  -1.3208   0.0000   0.0000   0.0000   0.6751
  -2.700   0.3553   0.01148   0.00453  -0.1442  0.7526  0.1168  -1.2764   0.0000   0.0000   0.0000   0.6612
  -2.600   0.3666   0.01139   0.00448  -0.1442  0.7512  0.1264  -1.2332   0.0000   0.0000   0.0000   0.6485
  -2.500   0.3776   0.01131   0.00445  -0.1443  0.7494  0.1373  -1.1905   0.0000   0.0000   0.0000   0.6368
  -2.400   0.3888   0.01122   0.00441  -0.1443  0.7478  0.1494  -1.1474   0.0000   0.0000   0.0000   0.6255
  -2.300   0.4002   0.01113   0.00437  -0.1444  0.7464  0.1629  -1.1042   0.0000   0.0000   0.0000   0.6149
  -2.200   0.4117   0.01105   0.00432  -0.1445  0.7451  0.1772  -1.0609   0.0000   0.0000   0.0000   0.6047
  -2.100   0.4232   0.01096   0.00427  -0.1447  0.7439  0.1923  -1.0176   0.0000   0.0000   0.0000   0.5950
  -2.000   0.4350   0.01088   0.00422  -0.1448  0.7428  0.2077  -0.9754   0.0000   0.0000   0.0000   0.5858
  -1.900   0.4464   0.01081   0.00419  -0.1449  0.7416  0.2239  -0.9362   0.0000   0.0000   0.0000   0.5772
  -1.800   0.4573   0.01075   0.00420  -0.1449  0.7397  0.2407  -0.8982   0.0000   0.0000   0.0000   0.5692
  -1.700   0.4685   0.01068   0.00419  -0.1450  0.7380  0.2585  -0.8601   0.0000   0.0000   0.0000   0.5615
  -1.600   0.4798   0.01060   0.00416  -0.1451  0.7365  0.2770  -0.8219   0.0000   0.0000   0.0000   0.5541
  -1.500   0.4913   0.01052   0.00414  -0.1452  0.7351  0.2974  -0.8265   0.0000   0.0000   0.0000   0.5471
  -1.400   0.5028   0.01044   0.00410  -0.1453  0.7339  0.3198  -0.8341   0.0000   0.0000   0.0000   0.5402
  -1.300   0.5145   0.01035   0.00407  -0.1454  0.7328  0.3436  -0.8418   0.0000   0.0000   0.0000   0.5337
  -1.200   0.5260   0.01028   0.00406  -0.1455  0.7315  0.3685  -0.8494   0.0000   0.0000   0.0000   0.5275
  -1.000   0.5477   0.01013   0.00410  -0.1456  0.7278  0.4221  -0.8638   0.0000   0.0000   0.0000   0.5162
  -0.900   0.5589   0.01004   0.00410  -0.1456  0.7262  0.4508  -0.8716   0.0000   0.0000   0.0000   0.5107
  -0.800   0.5702   0.00995   0.00409  -0.1457  0.7248  0.4814  -0.8795   0.0000   0.0000   0.0000   0.5055
  -0.700   0.5817   0.00987   0.00408  -0.1457  0.7235  0.5124  -0.8876   0.0000   0.0000   0.0000   0.5003
  -0.600   0.5932   0.00979   0.00406  -0.1458  0.7224  0.5433  -0.8957   0.0000   0.0000   0.0000   0.4954
  -0.500   0.6040   0.00973   0.00409  -0.1457  0.7207  0.5727  -0.9034   0.0000   0.0000   0.0000   0.4907
  -0.400   0.6145   0.00967   0.00413  -0.1456  0.7187  0.6016  -0.9110   0.0000   0.0000   0.0000   0.4862
  -0.300   0.6252   0.00961   0.00416  -0.1455  0.7169  0.6302  -0.9188   0.0000   0.0000   0.0000   0.4818
  -0.200   0.6361   0.00956   0.00417  -0.1454  0.7153  0.6584  -0.9268   0.0000   0.0000   0.0000   0.4775
  -0.100   0.6471   0.00951   0.00417  -0.1453  0.7139  0.6840  -0.9350   0.0000   0.0000   0.0000   0.4733
   0.000   0.6582   0.00946   0.00417  -0.1452  0.7126  0.7078  -0.9434   0.0000   0.0000   0.0000   0.4692
   0.100   0.6692   0.00943   0.00417  -0.1451  0.7113  0.7299  -0.9520   0.0000   0.0000   0.0000   0.4652
   0.200   0.6790   0.00940   0.00422  -0.1448  0.7092  0.7499  -0.9600   0.0000   0.0000   0.0000   0.4614
   0.300   0.6893   0.00937   0.00425  -0.1445  0.7072  0.7697  -0.9682   0.0000   0.0000   0.0000   0.4578
   0.400   0.6996   0.00934   0.00426  -0.1442  0.7055  0.7888  -0.9766   0.0000   0.0000   0.0000   0.4541
   0.500   0.7099   0.00930   0.00425  -0.1439  0.7039  0.8071  -0.9851   0.0000   0.0000   0.0000   0.4506
   0.600   0.7202   0.00926   0.00423  -0.1436  0.7025  0.8257  -0.9935   0.0000   0.0000   0.0000   0.4471
   0.700   0.7305   0.00922   0.00421  -0.1433  0.7013  0.8447  -1.0022   0.0000   0.0000   0.0000   0.4437
   0.800   0.7391   0.00919   0.00426  -0.1427  0.6990  0.8639  -1.0098   0.0000   0.0000   0.0000   0.4404
   0.900   0.7477   0.00915   0.00426  -0.1420  0.6969  0.8850  -1.0177   0.0000   0.0000   0.0000   0.4371
   1.000   0.7566   0.00909   0.00424  -0.1414  0.6951  0.9096  -1.0258   0.0000   0.0000   0.0000   0.4339
   1.100   0.7682   0.00902   0.00419  -0.1413  0.6934  0.9402  -1.0355   0.0000   0.0000   0.0000   0.4308
   1.200   0.7872   0.00895   0.00410  -0.1429  0.6919  1.0000  -1.0497   0.0000   0.0000   0.0000   0.4282
   1.300   0.7990   0.00898   0.00410  -0.1430  0.6903  1.0000  -1.0600   0.0000   0.0000   0.0000   0.4256
   1.400   0.8100   0.00901   0.00413  -0.1431  0.6879  1.0000  -1.0699   0.0000   0.0000   0.0000   0.4231
   1.500   0.8213   0.00903   0.00414  -0.1431  0.6857  1.0000  -1.0802   0.0000   0.0000   0.0000   0.4206
   1.600   0.8330   0.00905   0.00413  -0.1432  0.6838  1.0000  -1.0907   0.0000   0.0000   0.0000   0.4182
   1.700   0.8448   0.00906   0.00411  -0.1434  0.6822  1.0000  -1.1014   0.0000   0.0000   0.0000   0.4158
   1.800   0.8569   0.00908   0.00409  -0.1436  0.6807  1.0000  -1.1124   0.0000   0.0000   0.0000   0.4135
   1.900   0.8675   0.00912   0.00413  -0.1435  0.6782  1.0000  -1.1227   0.0000   0.0000   0.0000   0.4112
   2.000   0.8786   0.00914   0.00415  -0.1436  0.6758  1.0000  -1.1335   0.0000   0.0000   0.0000   0.4090
   2.100   0.8901   0.00916   0.00415  -0.1436  0.6737  1.0000  -1.1445   0.0000   0.0000   0.0000   0.4069
   2.200   0.9017   0.00918   0.00414  -0.1437  0.6718  1.0000  -1.1558   0.0000   0.0000   0.0000   0.4048
   2.300   0.9136   0.00920   0.00412  -0.1439  0.6702  1.0000  -1.1674   0.0000   0.0000   0.0000   0.4027
   2.400   0.9242   0.00923   0.00417  -0.1438  0.6675  1.0000  -1.1784   0.0000   0.0000   0.0000   0.4007
   2.500   0.9352   0.00926   0.00419  -0.1438  0.6650  1.0000  -1.1899   0.0000   0.0000   0.0000   0.3987
   2.600   0.9465   0.00928   0.00420  -0.1439  0.6628  1.0000  -1.2020   0.0000   0.0000   0.0000   0.3968
   2.700   0.9581   0.00930   0.00419  -0.1439  0.6608  1.0000  -1.2143   0.0000   0.0000   0.0000   0.3949
   2.800   0.9695   0.00933   0.00420  -0.1440  0.6588  1.0000  -1.2264   0.0000   0.0000   0.0000   0.3931
   2.900   0.9800   0.00937   0.00425  -0.1439  0.6559  1.0000  -1.2379   0.0000   0.0000   0.0000   0.3913
   3.000   0.9911   0.00940   0.00427  -0.1439  0.6534  1.0000  -1.2500   0.0000   0.0000   0.0000   0.3895
   3.100   1.0024   0.00942   0.00427  -0.1440  0.6512  1.0000  -1.2629   0.0000   0.0000   0.0000   0.3878
   3.200   1.0140   0.00945   0.00426  -0.1440  0.6492  1.0000  -1.2761   0.0000   0.0000   0.0000   0.3861
   3.300   1.0245   0.00949   0.00432  -0.1440  0.6463  1.0000  -1.2883   0.0000   0.0000   0.0000   0.3844
   3.400   1.0352   0.00952   0.00436  -0.1439  0.6435  1.0000  -1.3011   0.0000   0.0000   0.0000   0.3828
   3.500   1.0463   0.00955   0.00437  -0.1439  0.6410  1.0000  -1.3143   0.0000   0.0000   0.0000   0.3812
   3.600   1.0578   0.00958   0.00437  -0.1440  0.6388  1.0000  -1.3281   0.0000   0.0000   0.0000   0.3796
   3.700   1.0683   0.00962   0.00442  -0.1439  0.6358  1.0000  -1.3414   0.0000   0.0000   0.0000   0.3781
   3.800   1.0789   0.00966   0.00446  -0.1438  0.6328  1.0000  -1.3551   0.0000   0.0000   0.0000   0.3765
   3.900   1.0899   0.00969   0.00448  -0.1438  0.6301  1.0000  -1.3696   0.0000   0.0000   0.0000   0.3750
   4.000   1.1012   0.00973   0.00448  -0.1439  0.6278  1.0000  -1.3849   0.0000   0.0000   0.0000   0.3736
   4.100   1.1115   0.00978   0.00455  -0.1437  0.6244  1.0000  -1.3994   0.0000   0.0000   0.0000   0.3721
   4.200   1.1221   0.00982   0.00460  -0.1437  0.6212  1.0000  -1.4145   0.0000   0.0000   0.0000   0.3707
   4.300   1.1330   0.00986   0.00462  -0.1436  0.6185  1.0000  -1.4301   0.0000   0.0000   0.0000   0.3693
   4.400   1.1437   0.00991   0.00465  -0.1436  0.6155  1.0000  -1.4459   0.0000   0.0000   0.0000   0.3679
   4.500   1.1540   0.00995   0.00472  -0.1434  0.6120  1.0000  -1.4613   0.0000   0.0000   0.0000   0.3666
   4.600   1.1646   0.01000   0.00475  -0.1434  0.6088  1.0000  -1.4774   0.0000   0.0000   0.0000   0.3652
   4.700   1.1754   0.01005   0.00477  -0.1433  0.6059  1.0000  -1.4940   0.0000   0.0000   0.0000   0.3639
   4.800   1.1855   0.01010   0.00484  -0.1432  0.6020  1.0000  -1.5098   0.0000   0.0000   0.0000   0.3626
   4.900   1.1959   0.01015   0.00489  -0.1431  0.5985  1.0000  -1.5262   0.0000   0.0000   0.0000   0.3613
   5.000   1.2066   0.01021   0.00492  -0.1430  0.5954  1.0000  -1.5433   0.0000   0.0000   0.0000   0.3601
   5.100   1.2165   0.01027   0.00500  -0.1428  0.5912  1.0000  -1.5599   0.0000   0.0000   0.0000   0.3588
   5.200   1.2267   0.01033   0.00505  -0.1427  0.5874  1.0000  -1.5781   0.0000   0.0000   0.0000   0.3576
   5.300   1.2371   0.01040   0.00509  -0.1425  0.5840  1.0000  -1.5969   0.0000   0.0000   0.0000   0.3563
   5.400   1.2469   0.01046   0.00517  -0.1424  0.5796  1.0000  -1.6158   0.0000   0.0000   0.0000   0.3551
   5.500   1.2570   0.01053   0.00522  -0.1422  0.5758  1.0000  -1.6353   0.0000   0.0000   0.0000   0.3540
   5.600   1.2671   0.01060   0.00529  -0.1420  0.5719  1.0000  -1.6551   0.0000   0.0000   0.0000   0.3528
   5.700   1.2769   0.01067   0.00537  -0.1418  0.5675  1.0000  -1.6748   0.0000   0.0000   0.0000   0.3516
   5.800   1.2868   0.01075   0.00543  -0.1416  0.5637  1.0000  -1.6950   0.0000   0.0000   0.0000   0.3505
   5.900   1.2965   0.01083   0.00552  -0.1414  0.5592  1.0000  -1.7153   0.0000   0.0000   0.0000   0.3493
   6.000   1.3062   0.01091   0.00559  -0.1412  0.5548  1.0000  -1.7357   0.0000   0.0000   0.0000   0.3482
   6.100   1.3158   0.01101   0.00567  -0.1410  0.5505  1.0000  -1.7568   0.0000   0.0000   0.0000   0.3471
   6.200   1.3252   0.01109   0.00576  -0.1407  0.5457  1.0000  -1.7782   0.0000   0.0000   0.0000   0.3460
   6.400   1.3438   0.01129   0.00594  -0.1401  0.5360  1.0000  -1.8276   0.0000   0.0000   0.0000   0.3438
   6.500   1.3528   0.01140   0.00603  -0.1398  0.5312  1.0000  -1.8530   0.0000   0.0000   0.0000   0.3427
   6.600   1.3618   0.01150   0.00614  -0.1395  0.5258  1.0000  -1.8791   0.0000   0.0000   0.0000   0.3416
   6.700   1.3706   0.01162   0.00623  -0.1391  0.5207  1.0000  -1.9062   0.0000   0.0000   0.0000   0.3405
   6.800   1.3794   0.01174   0.00635  -0.1388  0.5152  1.0000  -1.9350   0.0000   0.0000   0.0000   0.3395
   6.900   1.3878   0.01187   0.00646  -0.1383  0.5100  1.0000  -1.9637   0.0000   0.0000   0.0000   0.3384
   7.000   1.3964   0.01199   0.00658  -0.1380  0.5044  1.0000  -1.9937   0.0000   0.0000   0.0000   0.3374
   7.100   1.4046   0.01213   0.00670  -0.1375  0.4990  1.0000  -2.0234   0.0000   0.0000   0.0000   0.3363
   7.200   1.4129   0.01226   0.00683  -0.1371  0.4934  1.0000  -2.0533   0.0000   0.0000   0.0000   0.3353
   7.300   1.4207   0.01242   0.00696  -0.1365  0.4879  1.0000  -2.0826   0.0000   0.0000   0.0000   0.3342
   7.400   1.4286   0.01256   0.00710  -0.1361  0.4820  1.0000  -2.1135   0.0000   0.0000   0.0000   0.3332
   7.500   1.4359   0.01274   0.00725  -0.1355  0.4764  1.0000  -2.1439   0.0000   0.0000   0.0000   0.3321
   7.600   1.4435   0.01289   0.00740  -0.1349  0.4702  1.0000  -2.1761   0.0000   0.0000   0.0000   0.3311
   7.700   1.4503   0.01308   0.00756  -0.1342  0.4644  1.0000  -2.2070   0.0000   0.0000   0.0000   0.3300
   7.800   1.4572   0.01325   0.00773  -0.1336  0.4577  1.0000  -2.2382   0.0000   0.0000   0.0000   0.3290
   7.900   1.4629   0.01344   0.00790  -0.1327  0.4514  1.0000  -2.2677   0.0000   0.0000   0.0000   0.3279
   8.000   1.4682   0.01365   0.00808  -0.1318  0.4448  1.0000  -2.2963   0.0000   0.0000   0.0000   0.3268
   8.100   1.4739   0.01386   0.00827  -0.1309  0.4381  1.0000  -2.3270   0.0000   0.0000   0.0000   0.3257
   8.200   1.4788   0.01410   0.00849  -0.1300  0.4319  1.0000  -2.3566   0.0000   0.0000   0.0000   0.3246
   8.300   1.4844   0.01432   0.00870  -0.1292  0.4251  1.0000  -2.3877   0.0000   0.0000   0.0000   0.3235
   8.400   1.4895   0.01458   0.00893  -0.1283  0.4189  1.0000  -2.4179   0.0000   0.0000   0.0000   0.3225
   8.500   1.4944   0.01484   0.00918  -0.1274  0.4126  1.0000  -2.4478   0.0000   0.0000   0.0000   0.3214
   8.600   1.4997   0.01510   0.00942  -0.1266  0.4062  1.0000  -2.4785   0.0000   0.0000   0.0000   0.3204
   8.800   1.5092   0.01568   0.00997  -0.1248  0.3936  1.0000  -2.5428   0.0000   0.0000   0.0000   0.3184
   8.900   1.5135   0.01600   0.01027  -0.1239  0.3874  1.0000  -2.5812   0.0000   0.0000   0.0000   0.3174
   9.000   1.5179   0.01633   0.01058  -0.1231  0.3809  1.0000  -2.6201   0.0000   0.0000   0.0000   0.3164
   9.100   1.5225   0.01665   0.01090  -0.1223  0.3746  1.0000  -2.6596   0.0000   0.0000   0.0000   0.3154
   9.300   1.5310   0.01737   0.01158  -0.1206  0.3620  1.0000  -2.7372   0.0000   0.0000   0.0000   0.3135
   9.400   1.5348   0.01776   0.01195  -0.1197  0.3560  1.0000  -2.7753   0.0000   0.0000   0.0000   0.3126
   9.500   1.5390   0.01814   0.01231  -0.1189  0.3496  1.0000  -2.8143   0.0000   0.0000   0.0000   0.3117
   9.600   1.5431   0.01853   0.01269  -0.1181  0.3435  1.0000  -2.8535   0.0000   0.0000   0.0000   0.3108
   9.700   1.5464   0.01897   0.01311  -0.1172  0.3375  1.0000  -2.8905   0.0000   0.0000   0.0000   0.3099
   9.800   1.5508   0.01936   0.01349  -0.1165  0.3311  1.0000  -2.9306   0.0000   0.0000   0.0000   0.3090
   9.900   1.5542   0.01982   0.01393  -0.1157  0.3252  1.0000  -2.9680   0.0000   0.0000   0.0000   0.3081
  10.000   1.5579   0.02026   0.01436  -0.1149  0.3189  1.0000  -3.0068   0.0000   0.0000   0.0000   0.3073
  10.100   1.5615   0.02072   0.01480  -0.1141  0.3129  1.0000  -3.0452   0.0000   0.0000   0.0000   0.3064
  10.200   1.5643   0.02123   0.01529  -0.1132  0.3069  1.0000  -3.0815   0.0000   0.0000   0.0000   0.3055
  10.300   1.5682   0.02168   0.01574  -0.1125  0.3006  1.0000  -3.1209   0.0000   0.0000   0.0000   0.3047
  10.400   1.5710   0.02220   0.01624  -0.1117  0.2948  1.0000  -3.1577   0.0000   0.0000   0.0000   0.3039
  10.500   1.5743   0.02271   0.01673  -0.1109  0.2887  1.0000  -3.1958   0.0000   0.0000   0.0000   0.3031
  10.600   1.5775   0.02322   0.01723  -0.1102  0.2828  1.0000  -3.2337   0.0000   0.0000   0.0000   0.3022
  10.700   1.5797   0.02379   0.01777  -0.1093  0.2771  1.0000  -3.2692   0.0000   0.0000   0.0000   0.3014
  10.800   1.5832   0.02430   0.01827  -0.1086  0.2710  1.0000  -3.3082   0.0000   0.0000   0.0000   0.3006
  10.900   1.5856   0.02488   0.01884  -0.1078  0.2654  1.0000  -3.3458   0.0000   0.0000   0.0000   0.2998
  11.000   1.5883   0.02544   0.01939  -0.1071  0.2595  1.0000  -3.3854   0.0000   0.0000   0.0000   0.2990
  11.100   1.5911   0.02601   0.01994  -0.1063  0.2539  1.0000  -3.4250   0.0000   0.0000   0.0000   0.2983
  11.200   1.5930   0.02664   0.02056  -0.1055  0.2484  1.0000  -3.4621   0.0000   0.0000   0.0000   0.2975
  11.300   1.5959   0.02720   0.02111  -0.1048  0.2426  1.0000  -3.5027   0.0000   0.0000   0.0000   0.2967
  11.400   1.5977   0.02785   0.02174  -0.1040  0.2372  1.0000  -3.5398   0.0000   0.0000   0.0000   0.2959
  11.500   1.5999   0.02847   0.02235  -0.1032  0.2313  1.0000  -3.5781   0.0000   0.0000   0.0000   0.2952
  11.600   1.6020   0.02911   0.02298  -0.1025  0.2256  1.0000  -3.6163   0.0000   0.0000   0.0000   0.2944
  11.700   1.6029   0.02984   0.02367  -0.1017  0.2201  1.0000  -3.6512   0.0000   0.0000   0.0000   0.2937
  11.800   1.6053   0.03047   0.02430  -0.1010  0.2141  1.0000  -3.6904   0.0000   0.0000   0.0000   0.2930
  11.900   1.6067   0.03117   0.02498  -0.1002  0.2085  1.0000  -3.7270   0.0000   0.0000   0.0000   0.2922
  12.000   1.6075   0.03192   0.02571  -0.0994  0.2029  1.0000  -3.7616   0.0000   0.0000   0.0000   0.2915
  12.100   1.6093   0.03260   0.02638  -0.0987  0.1970  1.0000  -3.7994   0.0000   0.0000   0.0000   0.2908
  12.200   1.6103   0.03336   0.02712  -0.0980  0.1917  1.0000  -3.8347   0.0000   0.0000   0.0000   0.2901
  12.300   1.6112   0.03413   0.02787  -0.0972  0.1862  1.0000  -3.8698   0.0000   0.0000   0.0000   0.2894
  12.400   1.6129   0.03485   0.02859  -0.0965  0.1808  1.0000  -3.9074   0.0000   0.0000   0.0000   0.2887
  12.500   1.6135   0.03567   0.02938  -0.0958  0.1759  1.0000  -3.9415   0.0000   0.0000   0.0000   0.2880
  12.600   1.6151   0.03641   0.03012  -0.0952  0.1707  1.0000  -3.9791   0.0000   0.0000   0.0000   0.2873
  12.700   1.6162   0.03720   0.03090  -0.0945  0.1659  1.0000  -4.0151   0.0000   0.0000   0.0000   0.2867
  12.800   1.6170   0.03803   0.03172  -0.0938  0.1613  1.0000  -4.0500   0.0000   0.0000   0.0000   0.2860
  12.900   1.6186   0.03880   0.03248  -0.0932  0.1566  1.0000  -4.0875   0.0000   0.0000   0.0000   0.2854
  13.000   1.6187   0.03969   0.03336  -0.0926  0.1524  1.0000  -4.1206   0.0000   0.0000   0.0000   0.2848
  13.100   1.6206   0.04045   0.03412  -0.0920  0.1478  1.0000  -4.1591   0.0000   0.0000   0.0000   0.2841
  13.200   1.6210   0.04135   0.03500  -0.0914  0.1437  1.0000  -4.1930   0.0000   0.0000   0.0000   0.2835
  13.300   1.6223   0.04218   0.03583  -0.0908  0.1393  1.0000  -4.2297   0.0000   0.0000   0.0000   0.2829
  13.400   1.6230   0.04306   0.03671  -0.0902  0.1353  1.0000  -4.2646   0.0000   0.0000   0.0000   0.2823
  13.500   1.6237   0.04396   0.03760  -0.0897  0.1311  1.0000  -4.2994   0.0000   0.0000   0.0000   0.2817
  13.600   1.6246   0.04485   0.03849  -0.0891  0.1272  1.0000  -4.3351   0.0000   0.0000   0.0000   0.2812
  13.700   1.6248   0.04581   0.03944  -0.0886  0.1234  1.0000  -4.3683   0.0000   0.0000   0.0000   0.2806
  13.800   1.6259   0.04670   0.04034  -0.0881  0.1195  1.0000  -4.4060   0.0000   0.0000   0.0000   0.2800
  13.900   1.6257   0.04771   0.04134  -0.0875  0.1160  1.0000  -4.4403   0.0000   0.0000   0.0000   0.2795
  14.000   1.6267   0.04862   0.04225  -0.0870  0.1124  1.0000  -4.4787   0.0000   0.0000   0.0000   0.2789
  14.100   1.6264   0.04966   0.04328  -0.0865  0.1092  1.0000  -4.5124   0.0000   0.0000   0.0000   0.2784
  14.200   1.6272   0.05060   0.04423  -0.0861  0.1059  1.0000  -4.5502   0.0000   0.0000   0.0000   0.2779
  14.300   1.6269   0.05165   0.04527  -0.0856  0.1028  1.0000  -4.5843   0.0000   0.0000   0.0000   0.2774
  14.400   1.6274   0.05265   0.04628  -0.0851  0.0999  1.0000  -4.6209   0.0000   0.0000   0.0000   0.2769
  14.500   1.6274   0.05369   0.04733  -0.0847  0.0970  1.0000  -4.6560   0.0000   0.0000   0.0000   0.2764
  14.600   1.6272   0.05478   0.04842  -0.0843  0.0944  1.0000  -4.6948   0.0000   0.0000   0.0000   0.2759
  14.700   1.6277   0.05579   0.04944  -0.0839  0.0917  1.0000  -4.7367   0.0000   0.0000   0.0000   0.2754
  14.800   1.6268   0.05697   0.05062  -0.0835  0.0894  1.0000  -4.7725   0.0000   0.0000   0.0000   0.2750
  14.900   1.6275   0.05798   0.05165  -0.0831  0.0868  1.0000  -4.8155   0.0000   0.0000   0.0000   0.2745
  15.000   1.6273   0.05910   0.05278  -0.0827  0.0845  1.0000  -4.8543   0.0000   0.0000   0.0000   0.2740
  15.100   1.6262   0.06032   0.05400  -0.0824  0.0826  1.0000  -4.8897   0.0000   0.0000   0.0000   0.2736
  15.200   1.6269   0.06134   0.05504  -0.0821  0.0803  1.0000  -4.9326   0.0000   0.0000   0.0000   0.2732
  15.300   1.6262   0.06253   0.05624  -0.0817  0.0783  1.0000  -4.9693   0.0000   0.0000   0.0000   0.2728
  15.400   1.6249   0.06378   0.05750  -0.0814  0.0766  1.0000  -5.0039   0.0000   0.0000   0.0000   0.2724
  15.500   1.6256   0.06484   0.05858  -0.0811  0.0746  1.0000  -5.0466   0.0000   0.0000   0.0000   0.2720
  15.600   1.6247   0.06608   0.05984  -0.0808  0.0729  1.0000  -5.0827   0.0000   0.0000   0.0000   0.2716
  15.700   1.6228   0.06744   0.06120  -0.0806  0.0714  1.0000  -5.1141   0.0000   0.0000   0.0000   0.2712
  15.800   1.6235   0.06852   0.06232  -0.0803  0.0696  1.0000  -5.1569   0.0000   0.0000   0.0000   0.2708
  15.900   1.6229   0.06975   0.06356  -0.0801  0.0680  1.0000  -5.1945   0.0000   0.0000   0.0000   0.2705
  16.000   1.6214   0.07111   0.06493  -0.0799  0.0666  1.0000  -5.2274   0.0000   0.0000   0.0000   0.2702
  16.100   1.6200   0.07245   0.06629  -0.0797  0.0653  1.0000  -5.2609   0.0000   0.0000   0.0000   0.2698
  16.200   1.6203   0.07359   0.06747  -0.0795  0.0637  1.0000  -5.3022   0.0000   0.0000   0.0000   0.2695
  16.300   1.6193   0.07491   0.06881  -0.0794  0.0624  1.0000  -5.3374   0.0000   0.0000   0.0000   0.2692
  16.400   1.6173   0.07635   0.07025  -0.0792  0.0612  1.0000  -5.3684   0.0000   0.0000   0.0000   0.2689
  16.500   1.6154   0.07779   0.07172  -0.0791  0.0601  1.0000  -5.3990   0.0000   0.0000   0.0000   0.2686
  16.600   1.6156   0.07896   0.07293  -0.0789  0.0588  1.0000  -5.4396   0.0000   0.0000   0.0000   0.2683
  16.700   1.6146   0.08029   0.07429  -0.0788  0.0576  1.0000  -5.4745   0.0000   0.0000   0.0000   0.2680
  16.800   1.6126   0.08176   0.07577  -0.0787  0.0565  1.0000  -5.5049   0.0000   0.0000   0.0000   0.2678
  16.900   1.6095   0.08337   0.07739  -0.0787  0.0557  1.0000  -5.5299   0.0000   0.0000   0.0000   0.2676
  17.000   1.6088   0.08471   0.07876  -0.0786  0.0546  1.0000  -5.5653   0.0000   0.0000   0.0000   0.2674
  17.100   1.6084   0.08599   0.08009  -0.0786  0.0535  1.0000  -5.6027   0.0000   0.0000   0.0000   0.2671
  17.200   1.6069   0.08743   0.08156  -0.0786  0.0525  1.0000  -5.6350   0.0000   0.0000   0.0000   0.2669
  17.300   1.6047   0.08898   0.08312  -0.0786  0.0516  1.0000  -5.6635   0.0000   0.0000   0.0000   0.2667
  17.400   1.6013   0.09070   0.08484  -0.0786  0.0509  1.0000  -5.6859   0.0000   0.0000   0.0000   0.2666
  17.500   1.5996   0.09219   0.08637  -0.0787  0.0500  1.0000  -5.7160   0.0000   0.0000   0.0000   0.2665
  17.600   1.5991   0.09353   0.08775  -0.0787  0.0490  1.0000  -5.7523   0.0000   0.0000   0.0000   0.2663
  17.700   1.5979   0.09497   0.08923  -0.0788  0.0481  1.0000  -5.7850   0.0000   0.0000   0.0000   0.2661
  17.800   1.5959   0.09652   0.09081  -0.0789  0.0473  1.0000  -5.8138   0.0000   0.0000   0.0000   0.2660
  17.900   1.5929   0.09822   0.09252  -0.0790  0.0466  1.0000  -5.8374   0.0000   0.0000   0.0000   0.2659
  18.000   1.5889   0.10004   0.09435  -0.0792  0.0460  1.0000  -5.8555   0.0000   0.0000   0.0000   0.2659
  18.100   1.5878   0.10148   0.09583  -0.0793  0.0452  1.0000  -5.8873   0.0000   0.0000   0.0000   0.2658
  18.200   1.5870   0.10288   0.09728  -0.0795  0.0443  1.0000  -5.9212   0.0000   0.0000   0.0000   0.2656
  18.300   1.5856   0.10438   0.09883  -0.0797  0.0435  1.0000  -5.9515   0.0000   0.0000   0.0000   0.2655
  18.400   1.5836   0.10596   0.10043  -0.0799  0.0428  1.0000  -5.9793   0.0000   0.0000   0.0000   0.2655
  18.500   1.5806   0.10768   0.10217  -0.0801  0.0422  1.0000  -6.0021   0.0000   0.0000   0.0000   0.2655
  18.600   1.5769   0.10952   0.10401  -0.0804  0.0417  1.0000  -6.0202   0.0000   0.0000   0.0000   0.2655
  18.700   1.5746   0.11117   0.10569  -0.0807  0.0410  1.0000  -6.0446   0.0000   0.0000   0.0000   0.2655
  18.800   1.5739   0.11261   0.10719  -0.0809  0.0403  1.0000  -6.0772   0.0000   0.0000   0.0000   0.2655
  18.900   1.5727   0.11412   0.10874  -0.0812  0.0396  1.0000  -6.1075   0.0000   0.0000   0.0000   0.2654
  19.000   1.5710   0.11570   0.11036  -0.0816  0.0389  1.0000  -6.1354   0.0000   0.0000   0.0000   0.2654
  19.100   1.5689   0.11734   0.11202  -0.0819  0.0383  1.0000  -6.1614   0.0000   0.0000   0.0000   0.2655
  19.200   1.5661   0.11910   0.11379  -0.0823  0.0379  1.0000  -6.1827   0.0000   0.0000   0.0000   0.2656
  19.300   1.5627   0.12092   0.11561  -0.0828  0.0374  1.0000  -6.2007   0.0000   0.0000   0.0000   0.2657
  19.400   1.5605   0.12259   0.11731  -0.0832  0.0369  1.0000  -6.2236   0.0000   0.0000   0.0000   0.2658
  19.500   1.5597   0.12408   0.11885  -0.0836  0.0363  1.0000  -6.2541   0.0000   0.0000   0.0000   0.2658
  19.600   1.5586   0.12560   0.12042  -0.0840  0.0357  1.0000  -6.2828   0.0000   0.0000   0.0000   0.2658
  19.700   1.5571   0.12719   0.12205  -0.0844  0.0351  1.0000  -6.3097   0.0000   0.0000   0.0000   0.2659
  19.800   1.5555   0.12878   0.12366  -0.0849  0.0347  1.0000  -6.3364   0.0000   0.0000   0.0000   0.2660
  19.900   1.5536   0.13042   0.12533  -0.0854  0.0342  1.0000  -6.3612   0.0000   0.0000   0.0000   0.2661
  20.000   1.5514   0.13210   0.12702  -0.0859  0.0338  1.0000  -6.3839   0.0000   0.0000   0.0000   0.2663


