xflr5 v6.57

 Calculated polar for: reaf

 1 1 Reynolds number fixed          Mach number fixed         

 xtrf =   1.000 (top)        1.000 (bottom)
 Mach =   0.000     Re =     0.960 e 6     Ncrit =   9.000

  alpha     CL        CD       CDp       Cm    Top Xtr Bot Xtr   Cpmin    Chinge    XCp    
 ------- -------- --------- --------- -------- ------- ------- -------- --------- ---------
 -10.000  -0.4646   0.01715   0.01213  -0.1370  0.7958  0.0212  -6.4874   0.0000   0.0000   0.0000  -0.0656
  -9.900  -0.4541   0.01691   0.01185  -0.1371  0.7946  0.0214  -6.3934   0.0000   0.0000   0.0000  -0.0728
  -9.800  -0.4435   0.01668   0.01157  -0.1372  0.7935  0.0216  -6.3000   0.0000   0.0000   0.0000  -0.0803
  -9.700  -0.4329   0.01646   0.01131  -0.1373  0.7924  0.0218  -6.2066   0.0000   0.0000   0.0000  -0.0883
  -9.600  -0.4222   0.01626   0.01105  -0.1374  0.7914  0.0219  -6.1134   0.0000   0.0000   0.0000  -0.0967
  -9.500  -0.4114   0.01605   0.01081  -0.1375  0.7902  0.0221  -6.0199   0.0000   0.0000   0.0000  -0.1057
  -9.400  -0.4005   0.01586   0.01058  -0.1376  0.7889  0.0222  -5.9262   0.0000   0.0000   0.0000  -0.1153
  -9.300  -0.3895   0.01569   0.01038  -0.1377  0.7876  0.0223  -5.8321   0.0000   0.0000   0.0000  -0.1254
  -9.200  -0.3785   0.01552   0.01017  -0.1378  0.7864  0.0224  -5.7386   0.0000   0.0000   0.0000  -0.1361
  -9.100  -0.3691   0.01494   0.00954  -0.1379  0.7852  0.0228  -5.6666   0.0000   0.0000   0.0000  -0.1460
  -9.000  -0.3587   0.01464   0.00922  -0.1380  0.7841  0.0230  -5.5788   0.0000   0.0000   0.0000  -0.1574
  -8.900  -0.3479   0.01443   0.00899  -0.1381  0.7830  0.0232  -5.4864   0.0000   0.0000   0.0000  -0.1699
  -8.800  -0.3369   0.01428   0.00882  -0.1381  0.7820  0.0234  -5.3920   0.0000   0.0000   0.0000  -0.1834
  -8.700  -0.3258   0.01414   0.00867  -0.1382  0.7809  0.0237  -5.2971   0.0000   0.0000   0.0000  -0.1980
  -8.600  -0.3147   0.01400   0.00853  -0.1383  0.7797  0.0239  -5.2024   0.0000   0.0000   0.0000  -0.2138
  -8.500  -0.3035   0.01387   0.00838  -0.1384  0.7784  0.0242  -5.1119   0.0000   0.0000   0.0000  -0.2307
  -8.400  -0.2923   0.01374   0.00823  -0.1385  0.7772  0.0244  -5.0256   0.0000   0.0000   0.0000  -0.2489
  -8.300  -0.2812   0.01360   0.00807  -0.1386  0.7760  0.0247  -4.9408   0.0000   0.0000   0.0000  -0.2686
  -8.200  -0.2700   0.01346   0.00790  -0.1387  0.7749  0.0250  -4.8574   0.0000   0.0000   0.0000  -0.2899
  -8.100  -0.2588   0.01332   0.00773  -0.1387  0.7739  0.0252  -4.7753   0.0000   0.0000   0.0000  -0.3130
  -8.000  -0.2476   0.01319   0.00755  -0.1388  0.7729  0.0254  -4.6938   0.0000   0.0000   0.0000  -0.3382
  -7.900  -0.2364   0.01307   0.00740  -0.1389  0.7719  0.0257  -4.6123   0.0000   0.0000   0.0000  -0.3660
  -7.800  -0.2251   0.01295   0.00725  -0.1390  0.7708  0.0258  -4.5306   0.0000   0.0000   0.0000  -0.3968
  -7.700  -0.2140   0.01276   0.00705  -0.1390  0.7695  0.0261  -4.4527   0.0000   0.0000   0.0000  -0.4302
  -7.600  -0.2034   0.01242   0.00669  -0.1391  0.7683  0.0265  -4.3815   0.0000   0.0000   0.0000  -0.4655
  -7.500  -0.1924   0.01223   0.00650  -0.1392  0.7671  0.0268  -4.3022   0.0000   0.0000   0.0000  -0.5065
  -7.400  -0.1811   0.01210   0.00635  -0.1393  0.7659  0.0271  -4.2211   0.0000   0.0000   0.0000  -0.5533
  -7.300  -0.1698   0.01198   0.00622  -0.1394  0.7649  0.0274  -4.1399   0.0000   0.0000   0.0000  -0.6065
  -7.200  -0.1585   0.01187   0.00610  -0.1395  0.7638  0.0277  -4.0594   0.0000   0.0000   0.0000  -0.6675
  -7.100  -0.1472   0.01177   0.00597  -0.1396  0.7628  0.0280  -3.9798   0.0000   0.0000   0.0000  -0.7379
  -7.000  -0.1358   0.01167   0.00585  -0.1396  0.7618  0.0284  -3.9011   0.0000   0.0000   0.0000  -0.8203
  -6.900  -0.1244   0.01156   0.00573  -0.1397  0.7606  0.0288  -3.8231   0.0000   0.0000   0.0000  -0.9181
  -6.800  -0.1130   0.01146   0.00561  -0.1398  0.7593  0.0291  -3.7453   0.0000   0.0000   0.0000  -1.0361
  -6.700  -0.1015   0.01138   0.00551  -0.1399  0.7581  0.0295  -3.6676   0.0000   0.0000   0.0000  -1.1812
  -6.600  -0.0900   0.01132   0.00542  -0.1399  0.7569  0.0298  -3.5917   0.0000   0.0000   0.0000  -1.3643
  -6.500  -0.0791   0.01105   0.00515  -0.1400  0.7558  0.0304  -3.5284   0.0000   0.0000   0.0000  -1.5876
  -6.400  -0.0678   0.01091   0.00501  -0.1401  0.7547  0.0309  -3.4586   0.0000   0.0000   0.0000  -1.8932
  -6.300  -0.0564   0.01082   0.00490  -0.1402  0.7537  0.0313  -3.3877   0.0000   0.0000   0.0000  -2.3266
  -6.200  -0.0449   0.01074   0.00481  -0.1403  0.7527  0.0317  -3.3176   0.0000   0.0000   0.0000  -2.9823
  -6.100  -0.0335   0.01066   0.00471  -0.1404  0.7516  0.0322  -3.2485   0.0000   0.0000   0.0000  -4.0894
  -6.000  -0.0220   0.01056   0.00462  -0.1405  0.7504  0.0327  -3.1801   0.0000   0.0000   0.0000  -6.3569
  -5.900  -0.0105   0.01048   0.00452  -0.1405  0.7492  0.0332  -3.1124   0.0000   0.0000   0.0000  -13.6174
  -5.800   0.0011   0.01041   0.00443  -0.1406  0.7480  0.0336  -3.0449   0.0000   0.0000   0.0000  135.8719
  -5.700   0.0125   0.01030   0.00430  -0.1407  0.7467  0.0341  -2.9795   0.0000   0.0000   0.0000  11.8571
  -5.600   0.0238   0.01013   0.00413  -0.1408  0.7456  0.0348  -2.9155   0.0000   0.0000   0.0000   6.3556
  -5.500   0.0352   0.01004   0.00403  -0.1409  0.7445  0.0354  -2.8486   0.0000   0.0000   0.0000   4.3703
  -5.400   0.0467   0.00997   0.00395  -0.1409  0.7434  0.0361  -2.7818   0.0000   0.0000   0.0000   3.3554
  -5.300   0.0583   0.00991   0.00387  -0.1410  0.7424  0.0367  -2.7158   0.0000   0.0000   0.0000   2.7407
  -5.200   0.0698   0.00984   0.00380  -0.1411  0.7413  0.0374  -2.6505   0.0000   0.0000   0.0000   2.3285
  -5.100   0.0814   0.00978   0.00373  -0.1412  0.7400  0.0380  -2.5855   0.0000   0.0000   0.0000   2.0326
  -5.000   0.0929   0.00967   0.00361  -0.1413  0.7387  0.0388  -2.5227   0.0000   0.0000   0.0000   1.8126
  -4.900   0.1043   0.00956   0.00351  -0.1414  0.7374  0.0397  -2.4610   0.0000   0.0000   0.0000   1.6412
  -4.800   0.1159   0.00949   0.00344  -0.1415  0.7362  0.0406  -2.4016   0.0000   0.0000   0.0000   1.5026
  -4.700   0.1274   0.00943   0.00338  -0.1415  0.7350  0.0415  -2.3430   0.0000   0.0000   0.0000   1.3888
  -4.600   0.1390   0.00938   0.00331  -0.1416  0.7339  0.0423  -2.2853   0.0000   0.0000   0.0000   1.2938
  -4.500   0.1506   0.00935   0.00325  -0.1417  0.7329  0.0430  -2.2280   0.0000   0.0000   0.0000   1.2132
  -4.400   0.1621   0.00923   0.00313  -0.1418  0.7318  0.0443  -2.1730   0.0000   0.0000   0.0000   1.1453
  -4.300   0.1736   0.00915   0.00306  -0.1419  0.7305  0.0453  -2.1162   0.0000   0.0000   0.0000   1.0858
  -4.200   0.1852   0.00909   0.00301  -0.1420  0.7292  0.0464  -2.0597   0.0000   0.0000   0.0000   1.0335
  -4.100   0.1968   0.00904   0.00295  -0.1421  0.7278  0.0475  -2.0040   0.0000   0.0000   0.0000   0.9873
  -4.000   0.2083   0.00897   0.00287  -0.1421  0.7265  0.0487  -1.9494   0.0000   0.0000   0.0000   0.9464
  -3.900   0.2199   0.00889   0.00280  -0.1422  0.7253  0.0502  -1.8944   0.0000   0.0000   0.0000   0.9099
  -3.800   0.2314   0.00884   0.00274  -0.1423  0.7241  0.0517  -1.8394   0.0000   0.0000   0.0000   0.8768
  -3.700   0.2431   0.00881   0.00269  -0.1424  0.7230  0.0532  -1.7851   0.0000   0.0000   0.0000   0.8468
  -3.600   0.2546   0.00874   0.00262  -0.1425  0.7219  0.0551  -1.7319   0.0000   0.0000   0.0000   0.8198
  -3.500   0.2662   0.00867   0.00257  -0.1426  0.7205  0.0571  -1.6784   0.0000   0.0000   0.0000   0.7950
  -3.400   0.2778   0.00863   0.00253  -0.1427  0.7191  0.0590  -1.6256   0.0000   0.0000   0.0000   0.7722
  -3.300   0.2893   0.00855   0.00247  -0.1427  0.7177  0.0615  -1.5735   0.0000   0.0000   0.0000   0.7514
  -3.200   0.3009   0.00850   0.00242  -0.1428  0.7163  0.0641  -1.5215   0.0000   0.0000   0.0000   0.7321
  -3.100   0.3125   0.00843   0.00237  -0.1429  0.7150  0.0671  -1.4730   0.0000   0.0000   0.0000   0.7143
  -3.000   0.3240   0.00839   0.00232  -0.1430  0.7138  0.0706  -1.4257   0.0000   0.0000   0.0000   0.6976
  -2.900   0.3356   0.00833   0.00227  -0.1431  0.7126  0.0746  -1.3788   0.0000   0.0000   0.0000   0.6822
  -2.800   0.3472   0.00829   0.00223  -0.1432  0.7114  0.0789  -1.3324   0.0000   0.0000   0.0000   0.6678
  -2.700   0.3587   0.00823   0.00220  -0.1433  0.7099  0.0840  -1.2862   0.0000   0.0000   0.0000   0.6543
  -2.600   0.3703   0.00816   0.00217  -0.1434  0.7085  0.0900  -1.2404   0.0000   0.0000   0.0000   0.6417
  -2.500   0.3819   0.00810   0.00213  -0.1435  0.7070  0.0968  -1.1949   0.0000   0.0000   0.0000   0.6299
  -2.400   0.3934   0.00804   0.00210  -0.1436  0.7056  0.1044  -1.1499   0.0000   0.0000   0.0000   0.6188
  -2.300   0.4049   0.00799   0.00207  -0.1437  0.7042  0.1126  -1.1051   0.0000   0.0000   0.0000   0.6082
  -2.200   0.4165   0.00794   0.00203  -0.1438  0.7030  0.1213  -1.0608   0.0000   0.0000   0.0000   0.5983
  -2.100   0.4280   0.00790   0.00201  -0.1439  0.7017  0.1304  -1.0169   0.0000   0.0000   0.0000   0.5889
  -2.000   0.4396   0.00785   0.00199  -0.1440  0.7003  0.1401  -0.9734   0.0000   0.0000   0.0000   0.5800
  -1.900   0.4511   0.00779   0.00197  -0.1441  0.6987  0.1506  -0.9332   0.0000   0.0000   0.0000   0.5716
  -1.800   0.4627   0.00773   0.00195  -0.1442  0.6971  0.1617  -0.8936   0.0000   0.0000   0.0000   0.5636
  -1.700   0.4742   0.00768   0.00193  -0.1443  0.6956  0.1730  -0.8543   0.0000   0.0000   0.0000   0.5559
  -1.600   0.4857   0.00763   0.00191  -0.1444  0.6941  0.1844  -0.8275   0.0000   0.0000   0.0000   0.5487
  -1.500   0.4972   0.00759   0.00189  -0.1445  0.6927  0.1955  -0.8351   0.0000   0.0000   0.0000   0.5417
  -1.400   0.5088   0.00756   0.00188  -0.1445  0.6914  0.2074  -0.8427   0.0000   0.0000   0.0000   0.5351
  -1.300   0.5203   0.00751   0.00187  -0.1447  0.6899  0.2207  -0.8503   0.0000   0.0000   0.0000   0.5288
  -1.200   0.5318   0.00745   0.00186  -0.1448  0.6882  0.2353  -0.8579   0.0000   0.0000   0.0000   0.5227
  -1.100   0.5434   0.00740   0.00185  -0.1449  0.6866  0.2499  -0.8655   0.0000   0.0000   0.0000   0.5169
  -1.000   0.5549   0.00735   0.00185  -0.1450  0.6850  0.2649  -0.8731   0.0000   0.0000   0.0000   0.5114
  -0.900   0.5664   0.00730   0.00184  -0.1451  0.6834  0.2810  -0.8808   0.0000   0.0000   0.0000   0.5061
  -0.800   0.5778   0.00726   0.00183  -0.1452  0.6820  0.2985  -0.8888   0.0000   0.0000   0.0000   0.5010
  -0.700   0.5893   0.00722   0.00182  -0.1453  0.6806  0.3181  -0.8968   0.0000   0.0000   0.0000   0.4960
  -0.600   0.6008   0.00716   0.00183  -0.1454  0.6789  0.3385  -0.9049   0.0000   0.0000   0.0000   0.4913
  -0.500   0.6123   0.00710   0.00183  -0.1455  0.6771  0.3592  -0.9129   0.0000   0.0000   0.0000   0.4868
  -0.400   0.6237   0.00704   0.00183  -0.1456  0.6754  0.3815  -0.9209   0.0000   0.0000   0.0000   0.4824
  -0.300   0.6352   0.00698   0.00184  -0.1457  0.6737  0.4049  -0.9291   0.0000   0.0000   0.0000   0.4782
  -0.200   0.6466   0.00694   0.00184  -0.1458  0.6721  0.4290  -0.9374   0.0000   0.0000   0.0000   0.4741
  -0.100   0.6579   0.00689   0.00185  -0.1458  0.6705  0.4535  -0.9456   0.0000   0.0000   0.0000   0.4702
   0.000   0.6693   0.00684   0.00186  -0.1459  0.6688  0.4795  -0.9540   0.0000   0.0000   0.0000   0.4664
   0.100   0.6808   0.00678   0.00188  -0.1460  0.6668  0.5063  -0.9627   0.0000   0.0000   0.0000   0.4627
   0.200   0.6922   0.00672   0.00189  -0.1461  0.6649  0.5329  -0.9717   0.0000   0.0000   0.0000   0.4591
   0.300   0.7035   0.00668   0.00190  -0.1462  0.6631  0.5575  -0.9807   0.0000   0.0000   0.0000   0.4557
   0.400   0.7148   0.00664   0.00192  -0.1462  0.6613  0.5812  -0.9896   0.0000   0.0000   0.0000   0.4523
   0.600   0.7374   0.00657   0.00196  -0.1463  0.6578  0.6287  -1.0074   0.0000   0.0000   0.0000   0.4459
   0.700   0.7487   0.00653   0.00199  -0.1463  0.6558  0.6535  -1.0165   0.0000   0.0000   0.0000   0.4428
   0.800   0.7599   0.00650   0.00201  -0.1464  0.6538  0.6751  -1.0257   0.0000   0.0000   0.0000   0.4398
   0.900   0.7711   0.00649   0.00203  -0.1464  0.6518  0.6945  -1.0351   0.0000   0.0000   0.0000   0.4368
   1.000   0.7822   0.00648   0.00205  -0.1463  0.6500  0.7121  -1.0445   0.0000   0.0000   0.0000   0.4340
   1.100   0.7934   0.00647   0.00207  -0.1463  0.6481  0.7288  -1.0539   0.0000   0.0000   0.0000   0.4312
   1.200   0.8046   0.00645   0.00210  -0.1463  0.6458  0.7446  -1.0634   0.0000   0.0000   0.0000   0.4285
   1.300   0.8157   0.00643   0.00212  -0.1463  0.6436  0.7603  -1.0735   0.0000   0.0000   0.0000   0.4258
   1.400   0.8267   0.00642   0.00214  -0.1463  0.6414  0.7756  -1.0837   0.0000   0.0000   0.0000   0.4232
   1.600   0.8485   0.00642   0.00218  -0.1461  0.6373  0.8045  -1.1039   0.0000   0.0000   0.0000   0.4183
   1.700   0.8594   0.00640   0.00221  -0.1460  0.6350  0.8197  -1.1140   0.0000   0.0000   0.0000   0.4159
   1.800   0.8701   0.00639   0.00223  -0.1459  0.6326  0.8350  -1.1241   0.0000   0.0000   0.0000   0.4135
   1.900   0.8806   0.00638   0.00226  -0.1458  0.6304  0.8507  -1.1346   0.0000   0.0000   0.0000   0.4112
   2.000   0.8906   0.00637   0.00228  -0.1455  0.6283  0.8676  -1.1449   0.0000   0.0000   0.0000   0.4089
   2.100   0.9005   0.00635   0.00230  -0.1451  0.6260  0.8877  -1.1550   0.0000   0.0000   0.0000   0.4066
   2.200   0.9097   0.00631   0.00232  -0.1446  0.6235  0.9121  -1.1647   0.0000   0.0000   0.0000   0.4042
   2.300   0.9192   0.00626   0.00232  -0.1442  0.6210  0.9476  -1.1748   0.0000   0.0000   0.0000   0.4020
   2.400   0.9349   0.00625   0.00231  -0.1452  0.6185  1.0000  -1.1893   0.0000   0.0000   0.0000   0.4003
   2.500   0.9461   0.00629   0.00233  -0.1452  0.6162  1.0000  -1.2012   0.0000   0.0000   0.0000   0.3983
   2.600   0.9576   0.00631   0.00236  -0.1453  0.6134  1.0000  -1.2134   0.0000   0.0000   0.0000   0.3965
   2.700   0.9690   0.00635   0.00238  -0.1454  0.6106  1.0000  -1.2255   0.0000   0.0000   0.0000   0.3946
   2.800   0.9801   0.00639   0.00240  -0.1454  0.6080  1.0000  -1.2375   0.0000   0.0000   0.0000   0.3928
   2.900   0.9913   0.00644   0.00243  -0.1454  0.6054  1.0000  -1.2495   0.0000   0.0000   0.0000   0.3910
   3.000   1.0027   0.00646   0.00245  -0.1455  0.6025  1.0000  -1.2620   0.0000   0.0000   0.0000   0.3893
   3.100   1.0139   0.00650   0.00248  -0.1456  0.5995  1.0000  -1.2748   0.0000   0.0000   0.0000   0.3876
   3.200   1.0248   0.00656   0.00251  -0.1456  0.5967  1.0000  -1.2875   0.0000   0.0000   0.0000   0.3859
   3.300   1.0360   0.00660   0.00254  -0.1456  0.5938  1.0000  -1.3003   0.0000   0.0000   0.0000   0.3843
   3.400   1.0472   0.00663   0.00257  -0.1456  0.5906  1.0000  -1.3135   0.0000   0.0000   0.0000   0.3827
   3.500   1.0582   0.00668   0.00261  -0.1456  0.5874  1.0000  -1.3266   0.0000   0.0000   0.0000   0.3812
   3.600   1.0690   0.00674   0.00264  -0.1456  0.5844  1.0000  -1.3400   0.0000   0.0000   0.0000   0.3796
   3.700   1.0803   0.00678   0.00268  -0.1457  0.5810  1.0000  -1.3539   0.0000   0.0000   0.0000   0.3781
   3.800   1.0912   0.00683   0.00271  -0.1457  0.5774  1.0000  -1.3680   0.0000   0.0000   0.0000   0.3766
   4.000   1.1130   0.00694   0.00279  -0.1456  0.5703  1.0000  -1.3977   0.0000   0.0000   0.0000   0.3737
   4.100   1.1238   0.00699   0.00284  -0.1456  0.5663  1.0000  -1.4131   0.0000   0.0000   0.0000   0.3723
   4.200   1.1343   0.00707   0.00289  -0.1456  0.5627  1.0000  -1.4282   0.0000   0.0000   0.0000   0.3709
   4.300   1.1453   0.00711   0.00293  -0.1456  0.5586  1.0000  -1.4441   0.0000   0.0000   0.0000   0.3695
   4.400   1.1560   0.00718   0.00298  -0.1455  0.5546  1.0000  -1.4599   0.0000   0.0000   0.0000   0.3682
   4.500   1.1665   0.00725   0.00303  -0.1455  0.5507  1.0000  -1.4757   0.0000   0.0000   0.0000   0.3669
   4.600   1.1773   0.00730   0.00308  -0.1454  0.5465  1.0000  -1.4921   0.0000   0.0000   0.0000   0.3656
   4.700   1.1877   0.00738   0.00313  -0.1453  0.5424  1.0000  -1.5083   0.0000   0.0000   0.0000   0.3643
   4.800   1.1984   0.00745   0.00319  -0.1453  0.5382  1.0000  -1.5247   0.0000   0.0000   0.0000   0.3630
   4.900   1.2089   0.00752   0.00325  -0.1452  0.5337  1.0000  -1.5414   0.0000   0.0000   0.0000   0.3617
   5.000   1.2191   0.00760   0.00331  -0.1451  0.5295  1.0000  -1.5581   0.0000   0.0000   0.0000   0.3605
   5.100   1.2297   0.00767   0.00337  -0.1451  0.5248  1.0000  -1.5759   0.0000   0.0000   0.0000   0.3593
   5.200   1.2397   0.00777   0.00344  -0.1449  0.5201  1.0000  -1.5942   0.0000   0.0000   0.0000   0.3581
   5.300   1.2501   0.00784   0.00350  -0.1448  0.5152  1.0000  -1.6136   0.0000   0.0000   0.0000   0.3569
   5.400   1.2601   0.00794   0.00357  -0.1447  0.5100  1.0000  -1.6329   0.0000   0.0000   0.0000   0.3557
   5.500   1.2702   0.00802   0.00364  -0.1446  0.5047  1.0000  -1.6528   0.0000   0.0000   0.0000   0.3546
   5.600   1.2800   0.00813   0.00373  -0.1444  0.4990  1.0000  -1.6724   0.0000   0.0000   0.0000   0.3534
   5.700   1.2900   0.00822   0.00381  -0.1442  0.4934  1.0000  -1.6925   0.0000   0.0000   0.0000   0.3523
   5.800   1.2995   0.00834   0.00389  -0.1440  0.4876  1.0000  -1.7127   0.0000   0.0000   0.0000   0.3511
   5.900   1.3095   0.00844   0.00397  -0.1438  0.4820  1.0000  -1.7334   0.0000   0.0000   0.0000   0.3500
   6.100   1.3287   0.00866   0.00415  -0.1434  0.4706  1.0000  -1.7752   0.0000   0.0000   0.0000   0.3478
   6.200   1.3378   0.00879   0.00425  -0.1431  0.4650  1.0000  -1.7974   0.0000   0.0000   0.0000   0.3467
   6.300   1.3476   0.00889   0.00434  -0.1430  0.4591  1.0000  -1.8236   0.0000   0.0000   0.0000   0.3457
   6.400   1.3567   0.00903   0.00445  -0.1427  0.4534  1.0000  -1.8489   0.0000   0.0000   0.0000   0.3446
   6.500   1.3661   0.00914   0.00455  -0.1424  0.4473  1.0000  -1.8752   0.0000   0.0000   0.0000   0.3436
   6.600   1.3751   0.00928   0.00466  -0.1421  0.4415  1.0000  -1.9020   0.0000   0.0000   0.0000   0.3425
   6.700   1.3841   0.00942   0.00477  -0.1418  0.4350  1.0000  -1.9312   0.0000   0.0000   0.0000   0.3415
   6.800   1.3929   0.00956   0.00488  -0.1415  0.4284  1.0000  -1.9605   0.0000   0.0000   0.0000   0.3404
   6.900   1.4010   0.00973   0.00502  -0.1410  0.4213  1.0000  -1.9899   0.0000   0.0000   0.0000   0.3394
   7.000   1.4096   0.00988   0.00514  -0.1407  0.4136  1.0000  -2.0201   0.0000   0.0000   0.0000   0.3383
   7.100   1.4178   0.01005   0.00527  -0.1403  0.4063  1.0000  -2.0499   0.0000   0.0000   0.0000   0.3373
   7.200   1.4256   0.01023   0.00542  -0.1398  0.3992  1.0000  -2.0792   0.0000   0.0000   0.0000   0.3363
   7.300   1.4338   0.01039   0.00556  -0.1393  0.3921  1.0000  -2.1102   0.0000   0.0000   0.0000   0.3352
   7.400   1.4418   0.01056   0.00570  -0.1389  0.3857  1.0000  -2.1429   0.0000   0.0000   0.0000   0.3342
   7.600   1.4571   0.01091   0.00599  -0.1379  0.3724  1.0000  -2.2077   0.0000   0.0000   0.0000   0.3322
   7.700   1.4637   0.01109   0.00614  -0.1371  0.3659  1.0000  -2.2385   0.0000   0.0000   0.0000   0.3311
   7.800   1.4702   0.01129   0.00631  -0.1364  0.3590  1.0000  -2.2692   0.0000   0.0000   0.0000   0.3301
   7.900   1.4771   0.01147   0.00647  -0.1358  0.3523  1.0000  -2.3019   0.0000   0.0000   0.0000   0.3290
   8.000   1.4834   0.01169   0.00665  -0.1350  0.3459  1.0000  -2.3340   0.0000   0.0000   0.0000   0.3280
   8.100   1.4900   0.01189   0.00683  -0.1344  0.3393  1.0000  -2.3668   0.0000   0.0000   0.0000   0.3270
   8.200   1.4964   0.01210   0.00702  -0.1337  0.3332  1.0000  -2.3996   0.0000   0.0000   0.0000   0.3260
   8.400   1.5088   0.01255   0.00742  -0.1323  0.3206  1.0000  -2.4645   0.0000   0.0000   0.0000   0.3240
   8.500   1.5146   0.01280   0.00765  -0.1315  0.3145  1.0000  -2.4963   0.0000   0.0000   0.0000   0.3230
   8.600   1.5205   0.01306   0.00787  -0.1308  0.3082  1.0000  -2.5294   0.0000   0.0000   0.0000   0.3220
   8.700   1.5264   0.01331   0.00810  -0.1301  0.3021  1.0000  -2.5720   0.0000   0.0000   0.0000   0.3211
   8.800   1.5316   0.01360   0.00837  -0.1293  0.2959  1.0000  -2.6129   0.0000   0.0000   0.0000   0.3201
   8.900   1.5375   0.01387   0.00861  -0.1286  0.2894  1.0000  -2.6557   0.0000   0.0000   0.0000   0.3191
   9.000   1.5429   0.01416   0.00889  -0.1279  0.2834  1.0000  -2.6976   0.0000   0.0000   0.0000   0.3182
   9.100   1.5479   0.01448   0.00918  -0.1272  0.2773  1.0000  -2.7388   0.0000   0.0000   0.0000   0.3173
   9.200   1.5537   0.01477   0.00945  -0.1265  0.2713  1.0000  -2.7819   0.0000   0.0000   0.0000   0.3164
   9.300   1.5587   0.01511   0.00975  -0.1258  0.2655  1.0000  -2.8234   0.0000   0.0000   0.0000   0.3155
   9.400   1.5640   0.01543   0.01005  -0.1251  0.2596  1.0000  -2.8658   0.0000   0.0000   0.0000   0.3146
   9.500   1.5692   0.01576   0.01036  -0.1244  0.2539  1.0000  -2.9081   0.0000   0.0000   0.0000   0.3137
   9.600   1.5735   0.01615   0.01072  -0.1236  0.2480  1.0000  -2.9483   0.0000   0.0000   0.0000   0.3128
   9.700   1.5786   0.01649   0.01104  -0.1229  0.2416  1.0000  -2.9910   0.0000   0.0000   0.0000   0.3119
   9.800   1.5831   0.01688   0.01141  -0.1222  0.2355  1.0000  -3.0320   0.0000   0.0000   0.0000   0.3111
  10.000   1.5918   0.01769   0.01216  -0.1207  0.2231  1.0000  -3.1138   0.0000   0.0000   0.0000   0.3093
  10.100   1.5960   0.01811   0.01255  -0.1199  0.2172  1.0000  -3.1546   0.0000   0.0000   0.0000   0.3085
  10.300   1.6040   0.01898   0.01338  -0.1185  0.2050  1.0000  -3.2355   0.0000   0.0000   0.0000   0.3068
  10.400   1.6078   0.01944   0.01381  -0.1177  0.1991  1.0000  -3.2758   0.0000   0.0000   0.0000   0.3060
  10.500   1.6111   0.01994   0.01427  -0.1169  0.1932  1.0000  -3.3169   0.0000   0.0000   0.0000   0.3052
  10.600   1.6148   0.02040   0.01471  -0.1162  0.1871  1.0000  -3.3597   0.0000   0.0000   0.0000   0.3043
  10.700   1.6184   0.02088   0.01517  -0.1154  0.1814  1.0000  -3.4022   0.0000   0.0000   0.0000   0.3035
  10.800   1.6215   0.02141   0.01566  -0.1146  0.1758  1.0000  -3.4433   0.0000   0.0000   0.0000   0.3027
  10.900   1.6251   0.02190   0.01614  -0.1139  0.1702  1.0000  -3.4860   0.0000   0.0000   0.0000   0.3019
  11.000   1.6285   0.02240   0.01662  -0.1132  0.1651  1.0000  -3.5287   0.0000   0.0000   0.0000   0.3011
  11.100   1.6313   0.02295   0.01714  -0.1124  0.1601  1.0000  -3.5693   0.0000   0.0000   0.0000   0.3003
  11.200   1.6350   0.02344   0.01761  -0.1117  0.1552  1.0000  -3.6130   0.0000   0.0000   0.0000   0.2996
  11.300   1.6382   0.02397   0.01813  -0.1109  0.1507  1.0000  -3.6550   0.0000   0.0000   0.0000   0.2988
  11.400   1.6414   0.02450   0.01864  -0.1102  0.1461  1.0000  -3.6974   0.0000   0.0000   0.0000   0.2980
  11.500   1.6448   0.02502   0.01915  -0.1095  0.1420  1.0000  -3.7408   0.0000   0.0000   0.0000   0.2973
  11.600   1.6476   0.02559   0.01970  -0.1088  0.1377  1.0000  -3.7822   0.0000   0.0000   0.0000   0.2965
  11.700   1.6511   0.02611   0.02021  -0.1081  0.1336  1.0000  -3.8261   0.0000   0.0000   0.0000   0.2958
  11.800   1.6534   0.02671   0.02079  -0.1074  0.1297  1.0000  -3.8662   0.0000   0.0000   0.0000   0.2950
  11.900   1.6569   0.02724   0.02131  -0.1067  0.1256  1.0000  -3.9103   0.0000   0.0000   0.0000   0.2943
  12.000   1.6592   0.02785   0.02191  -0.1060  0.1219  1.0000  -3.9508   0.0000   0.0000   0.0000   0.2936
  12.100   1.6623   0.02841   0.02246  -0.1053  0.1180  1.0000  -3.9939   0.0000   0.0000   0.0000   0.2929
  12.200   1.6647   0.02903   0.02307  -0.1046  0.1145  1.0000  -4.0348   0.0000   0.0000   0.0000   0.2921
  12.300   1.6674   0.02962   0.02365  -0.1039  0.1108  1.0000  -4.0772   0.0000   0.0000   0.0000   0.2914
  12.400   1.6698   0.03025   0.02427  -0.1032  0.1075  1.0000  -4.1182   0.0000   0.0000   0.0000   0.2907
  12.500   1.6724   0.03086   0.02488  -0.1026  0.1040  1.0000  -4.1603   0.0000   0.0000   0.0000   0.2900
  12.600   1.6745   0.03152   0.02552  -0.1019  0.1010  1.0000  -4.2008   0.0000   0.0000   0.0000   0.2893
  12.700   1.6771   0.03213   0.02613  -0.1012  0.0977  1.0000  -4.2432   0.0000   0.0000   0.0000   0.2886
  12.800   1.6789   0.03282   0.02682  -0.1005  0.0948  1.0000  -4.2829   0.0000   0.0000   0.0000   0.2879
  12.900   1.6817   0.03344   0.02743  -0.0999  0.0917  1.0000  -4.3261   0.0000   0.0000   0.0000   0.2873
  13.000   1.6832   0.03418   0.02816  -0.0992  0.0889  1.0000  -4.3651   0.0000   0.0000   0.0000   0.2866
  13.100   1.6861   0.03481   0.02880  -0.0987  0.0860  1.0000  -4.4085   0.0000   0.0000   0.0000   0.2860
  13.200   1.6876   0.03555   0.02953  -0.0980  0.0833  1.0000  -4.4479   0.0000   0.0000   0.0000   0.2853
  13.300   1.6902   0.03622   0.03020  -0.0975  0.0806  1.0000  -4.4907   0.0000   0.0000   0.0000   0.2847
  13.400   1.6920   0.03696   0.03093  -0.0968  0.0780  1.0000  -4.5310   0.0000   0.0000   0.0000   0.2840
  13.500   1.6942   0.03768   0.03165  -0.0963  0.0756  1.0000  -4.5742   0.0000   0.0000   0.0000   0.2834
  13.600   1.6962   0.03841   0.03238  -0.0957  0.0731  1.0000  -4.6180   0.0000   0.0000   0.0000   0.2828
  13.700   1.6977   0.03918   0.03315  -0.0951  0.0710  1.0000  -4.6602   0.0000   0.0000   0.0000   0.2822
  13.800   1.7001   0.03989   0.03386  -0.0946  0.0688  1.0000  -4.7080   0.0000   0.0000   0.0000   0.2816
  13.900   1.7016   0.04068   0.03465  -0.0940  0.0668  1.0000  -4.7560   0.0000   0.0000   0.0000   0.2810
  14.000   1.7036   0.04144   0.03541  -0.0935  0.0650  1.0000  -4.8062   0.0000   0.0000   0.0000   0.2804
  14.100   1.7058   0.04218   0.03617  -0.0930  0.0631  1.0000  -4.8575   0.0000   0.0000   0.0000   0.2798
  14.200   1.7073   0.04300   0.03699  -0.0925  0.0614  1.0000  -4.9058   0.0000   0.0000   0.0000   0.2792
  14.300   1.7092   0.04379   0.03779  -0.0920  0.0599  1.0000  -4.9559   0.0000   0.0000   0.0000   0.2787
  14.400   1.7114   0.04456   0.03856  -0.0915  0.0583  1.0000  -5.0077   0.0000   0.0000   0.0000   0.2781
  14.500   1.7131   0.04538   0.03939  -0.0910  0.0568  1.0000  -5.0573   0.0000   0.0000   0.0000   0.2776
  14.600   1.7140   0.04628   0.04029  -0.0905  0.0554  1.0000  -5.1037   0.0000   0.0000   0.0000   0.2770
  14.700   1.7165   0.04703   0.04107  -0.0901  0.0541  1.0000  -5.1571   0.0000   0.0000   0.0000   0.2765
  14.800   1.7183   0.04784   0.04189  -0.0897  0.0528  1.0000  -5.2081   0.0000   0.0000   0.0000   0.2759
  14.900   1.7194   0.04873   0.04279  -0.0892  0.0515  1.0000  -5.2558   0.0000   0.0000   0.0000   0.2754
  15.000   1.7202   0.04966   0.04372  -0.0888  0.0504  1.0000  -5.3021   0.0000   0.0000   0.0000   0.2749
  15.100   1.7226   0.05044   0.04452  -0.0884  0.0493  1.0000  -5.3558   0.0000   0.0000   0.0000   0.2744
  15.200   1.7242   0.05130   0.04540  -0.0880  0.0481  1.0000  -5.4061   0.0000   0.0000   0.0000   0.2738
  15.300   1.7252   0.05223   0.04634  -0.0876  0.0470  1.0000  -5.4537   0.0000   0.0000   0.0000   0.2733
  15.400   1.7256   0.05322   0.04734  -0.0871  0.0460  1.0000  -5.4988   0.0000   0.0000   0.0000   0.2729
  15.500   1.7275   0.05408   0.04822  -0.0868  0.0451  1.0000  -5.5510   0.0000   0.0000   0.0000   0.2724
  15.600   1.7292   0.05496   0.04912  -0.0865  0.0441  1.0000  -5.6022   0.0000   0.0000   0.0000   0.2719
  15.700   1.7304   0.05590   0.05007  -0.0861  0.0430  1.0000  -5.6513   0.0000   0.0000   0.0000   0.2714
  15.800   1.7307   0.05694   0.05112  -0.0857  0.0421  1.0000  -5.6963   0.0000   0.0000   0.0000   0.2710
  15.900   1.7311   0.05796   0.05216  -0.0854  0.0412  1.0000  -5.7420   0.0000   0.0000   0.0000   0.2705
  16.000   1.7329   0.05885   0.05307  -0.0851  0.0403  1.0000  -5.7942   0.0000   0.0000   0.0000   0.2700
  16.100   1.7339   0.05983   0.05407  -0.0848  0.0394  1.0000  -5.8430   0.0000   0.0000   0.0000   0.2696
  16.200   1.7345   0.06086   0.05511  -0.0845  0.0385  1.0000  -5.8897   0.0000   0.0000   0.0000   0.2692
  16.300   1.7342   0.06198   0.05624  -0.0841  0.0377  1.0000  -5.9322   0.0000   0.0000   0.0000   0.2687
  16.400   1.7342   0.06307   0.05735  -0.0838  0.0369  1.0000  -5.9766   0.0000   0.0000   0.0000   0.2683
  16.500   1.7356   0.06401   0.05832  -0.0836  0.0361  1.0000  -6.0274   0.0000   0.0000   0.0000   0.2679
  16.600   1.7361   0.06507   0.05940  -0.0833  0.0353  1.0000  -6.0741   0.0000   0.0000   0.0000   0.2675
  16.700   1.7362   0.06618   0.06053  -0.0831  0.0346  1.0000  -6.1185   0.0000   0.0000   0.0000   0.2671
  16.800   1.7356   0.06737   0.06173  -0.0828  0.0338  1.0000  -6.1603   0.0000   0.0000   0.0000   0.2667
  16.900   1.7343   0.06867   0.06304  -0.0825  0.0331  1.0000  -6.1977   0.0000   0.0000   0.0000   0.2663
  17.000   1.7357   0.06964   0.06405  -0.0823  0.0324  1.0000  -6.2490   0.0000   0.0000   0.0000   0.2660
  17.100   1.7360   0.07075   0.06518  -0.0821  0.0317  1.0000  -6.2952   0.0000   0.0000   0.0000   0.2656
  17.200   1.7359   0.07193   0.06638  -0.0820  0.0310  1.0000  -6.3388   0.0000   0.0000   0.0000   0.2652
  17.300   1.7352   0.07316   0.06763  -0.0818  0.0303  1.0000  -6.3802   0.0000   0.0000   0.0000   0.2649
  17.400   1.7336   0.07452   0.06901  -0.0816  0.0297  1.0000  -6.4166   0.0000   0.0000   0.0000   0.2646
  17.500   1.7329   0.07578   0.07029  -0.0814  0.0291  1.0000  -6.4573   0.0000   0.0000   0.0000   0.2643
  17.600   1.7333   0.07691   0.07146  -0.0813  0.0285  1.0000  -6.5037   0.0000   0.0000   0.0000   0.2639
  17.700   1.7331   0.07812   0.07269  -0.0812  0.0279  1.0000  -6.5471   0.0000   0.0000   0.0000   0.2636
  17.800   1.7324   0.07938   0.07397  -0.0811  0.0273  1.0000  -6.5880   0.0000   0.0000   0.0000   0.2633
  17.900   1.7309   0.08075   0.07536  -0.0810  0.0268  1.0000  -6.6250   0.0000   0.0000   0.0000   0.2630
  18.000   1.7291   0.08215   0.07678  -0.0809  0.0263  1.0000  -6.6601   0.0000   0.0000   0.0000   0.2628
  18.200   1.7261   0.08493   0.07962  -0.0807  0.0254  1.0000  -6.7328   0.0000   0.0000   0.0000   0.2623
  18.300   1.7256   0.08620   0.08092  -0.0807  0.0249  1.0000  -6.7748   0.0000   0.0000   0.0000   0.2620
  18.400   1.7246   0.08755   0.08230  -0.0807  0.0245  1.0000  -6.8136   0.0000   0.0000   0.0000   0.2617
  18.500   1.7234   0.08892   0.08369  -0.0807  0.0241  1.0000  -6.8516   0.0000   0.0000   0.0000   0.2615
  18.600   1.7216   0.09039   0.08519  -0.0807  0.0237  1.0000  -6.8860   0.0000   0.0000   0.0000   0.2613
  18.700   1.7196   0.09188   0.08670  -0.0807  0.0233  1.0000  -6.9197   0.0000   0.0000   0.0000   0.2611
  18.800   1.7170   0.09348   0.08833  -0.0808  0.0230  1.0000  -6.9492   0.0000   0.0000   0.0000   0.2610
  18.900   1.7139   0.09514   0.09001  -0.0809  0.0226  1.0000  -6.9758   0.0000   0.0000   0.0000   0.2608
  19.000   1.7110   0.09679   0.09169  -0.0810  0.0223  1.0000  -7.0032   0.0000   0.0000   0.0000   0.2607
  19.100   1.7103   0.09814   0.09308  -0.0811  0.0220  1.0000  -7.0429   0.0000   0.0000   0.0000   0.2605
  19.200   1.7092   0.09954   0.09452  -0.0812  0.0218  1.0000  -7.0804   0.0000   0.0000   0.0000   0.2604
  19.300   1.7075   0.10102   0.09604  -0.0813  0.0215  1.0000  -7.1146   0.0000   0.0000   0.0000   0.2602
  19.400   1.7058   0.10251   0.09755  -0.0815  0.0212  1.0000  -7.1487   0.0000   0.0000   0.0000   0.2601
  19.500   1.7034   0.10408   0.09916  -0.0816  0.0209  1.0000  -7.1815   0.0000   0.0000   0.0000   0.2600
  19.600   1.7012   0.10564   0.10075  -0.0818  0.0207  1.0000  -7.2151   0.0000   0.0000   0.0000   0.2599
  19.700   1.6984   0.10730   0.10244  -0.0821  0.0204  1.0000  -7.2451   0.0000   0.0000   0.0000   0.2599
  19.800   1.6957   0.10896   0.10413  -0.0823  0.0202  1.0000  -7.2752   0.0000   0.0000   0.0000   0.2598
  19.900   1.6924   0.11071   0.10591  -0.0826  0.0200  1.0000  -7.3010   0.0000   0.0000   0.0000   0.2598
  20.000   1.6889   0.11251   0.10773  -0.0829  0.0197  1.0000  -7.3256   0.0000   0.0000   0.0000   0.2598


