xflr5 v6.57

 Calculated polar for: reaf

 1 1 Reynolds number fixed          Mach number fixed         

 xtrf =   1.000 (top)        1.000 (bottom)
 Mach =   0.000     Re =     0.920 e 6     Ncrit =   9.000

  alpha     CL        CD       CDp       Cm    Top Xtr Bot Xtr   Cpmin    Chinge    XCp    
 ------- -------- --------- --------- -------- ------- ------- -------- --------- ---------
 -10.000  -0.4629   0.01764   0.01261  -0.1371  0.7980  0.0215  -6.4583   0.0000   0.0000   0.0000  -0.0667
  -9.900  -0.4525   0.01739   0.01231  -0.1372  0.7967  0.0217  -6.3659   0.0000   0.0000   0.0000  -0.0739
  -9.800  -0.4419   0.01714   0.01202  -0.1373  0.7954  0.0218  -6.2736   0.0000   0.0000   0.0000  -0.0815
  -9.700  -0.4313   0.01691   0.01174  -0.1373  0.7943  0.0220  -6.1814   0.0000   0.0000   0.0000  -0.0896
  -9.600  -0.4206   0.01670   0.01148  -0.1374  0.7932  0.0221  -6.0888   0.0000   0.0000   0.0000  -0.0980
  -9.500  -0.4098   0.01651   0.01124  -0.1375  0.7921  0.0223  -5.9958   0.0000   0.0000   0.0000  -0.1070
  -9.400  -0.3990   0.01634   0.01102  -0.1376  0.7911  0.0224  -5.9020   0.0000   0.0000   0.0000  -0.1166
  -9.300  -0.3892   0.01584   0.01048  -0.1377  0.7898  0.0226  -5.8257   0.0000   0.0000   0.0000  -0.1258
  -9.200  -0.3792   0.01542   0.01003  -0.1378  0.7885  0.0229  -5.7436   0.0000   0.0000   0.0000  -0.1356
  -9.100  -0.3687   0.01515   0.00975  -0.1379  0.7872  0.0231  -5.6530   0.0000   0.0000   0.0000  -0.1466
  -9.000  -0.3578   0.01495   0.00953  -0.1380  0.7860  0.0233  -5.5597   0.0000   0.0000   0.0000  -0.1585
  -8.900  -0.3469   0.01478   0.00934  -0.1381  0.7849  0.0235  -5.4656   0.0000   0.0000   0.0000  -0.1712
  -8.800  -0.3359   0.01463   0.00918  -0.1382  0.7838  0.0237  -5.3710   0.0000   0.0000   0.0000  -0.1848
  -8.700  -0.3249   0.01450   0.00902  -0.1383  0.7827  0.0239  -5.2768   0.0000   0.0000   0.0000  -0.1995
  -8.600  -0.3138   0.01437   0.00886  -0.1384  0.7818  0.0242  -5.1834   0.0000   0.0000   0.0000  -0.2152
  -8.500  -0.3026   0.01422   0.00870  -0.1385  0.7806  0.0245  -5.0925   0.0000   0.0000   0.0000  -0.2322
  -8.400  -0.2915   0.01408   0.00854  -0.1385  0.7793  0.0247  -5.0078   0.0000   0.0000   0.0000  -0.2505
  -8.300  -0.2804   0.01393   0.00836  -0.1386  0.7781  0.0250  -4.9244   0.0000   0.0000   0.0000  -0.2702
  -8.200  -0.2692   0.01378   0.00818  -0.1387  0.7769  0.0253  -4.8422   0.0000   0.0000   0.0000  -0.2916
  -8.100  -0.2580   0.01364   0.00800  -0.1388  0.7757  0.0255  -4.7607   0.0000   0.0000   0.0000  -0.3149
  -8.000  -0.2468   0.01350   0.00783  -0.1388  0.7746  0.0257  -4.6795   0.0000   0.0000   0.0000  -0.3403
  -7.900  -0.2356   0.01338   0.00768  -0.1389  0.7736  0.0259  -4.5979   0.0000   0.0000   0.0000  -0.3683
  -7.800  -0.2248   0.01311   0.00737  -0.1390  0.7726  0.0262  -4.5248   0.0000   0.0000   0.0000  -0.3977
  -7.700  -0.2142   0.01281   0.00705  -0.1391  0.7716  0.0265  -4.4512   0.0000   0.0000   0.0000  -0.4298
  -7.600  -0.2031   0.01262   0.00686  -0.1392  0.7704  0.0268  -4.3712   0.0000   0.0000   0.0000  -0.4667
  -7.500  -0.1919   0.01248   0.00672  -0.1393  0.7691  0.0271  -4.2898   0.0000   0.0000   0.0000  -0.5084
  -7.400  -0.1807   0.01235   0.00658  -0.1394  0.7679  0.0274  -4.2086   0.0000   0.0000   0.0000  -0.5556
  -7.300  -0.1694   0.01223   0.00645  -0.1394  0.7667  0.0277  -4.1280   0.0000   0.0000   0.0000  -0.6092
  -7.200  -0.1580   0.01212   0.00632  -0.1395  0.7656  0.0280  -4.0484   0.0000   0.0000   0.0000  -0.6705
  -7.100  -0.1467   0.01200   0.00618  -0.1396  0.7645  0.0284  -3.9697   0.0000   0.0000   0.0000  -0.7413
  -7.000  -0.1354   0.01189   0.00604  -0.1397  0.7635  0.0287  -3.8919   0.0000   0.0000   0.0000  -0.8240
  -6.900  -0.1240   0.01180   0.00591  -0.1397  0.7625  0.0291  -3.8145   0.0000   0.0000   0.0000  -0.9222
  -6.800  -0.1126   0.01171   0.00580  -0.1398  0.7614  0.0294  -3.7369   0.0000   0.0000   0.0000  -1.0411
  -6.700  -0.1011   0.01164   0.00571  -0.1399  0.7602  0.0297  -3.6589   0.0000   0.0000   0.0000  -1.1878
  -6.600  -0.0901   0.01138   0.00544  -0.1400  0.7589  0.0303  -3.5906   0.0000   0.0000   0.0000  -1.3620
  -6.500  -0.0789   0.01122   0.00529  -0.1401  0.7577  0.0308  -3.5210   0.0000   0.0000   0.0000  -1.5910
  -6.400  -0.0675   0.01111   0.00518  -0.1402  0.7565  0.0312  -3.4498   0.0000   0.0000   0.0000  -1.9012
  -6.300  -0.0561   0.01102   0.00508  -0.1402  0.7554  0.0317  -3.3793   0.0000   0.0000   0.0000  -2.3388
  -6.200  -0.0447   0.01093   0.00497  -0.1403  0.7543  0.0321  -3.3100   0.0000   0.0000   0.0000  -3.0008
  -6.100  -0.0332   0.01084   0.00486  -0.1404  0.7533  0.0326  -3.2415   0.0000   0.0000   0.0000  -4.1204
  -6.000  -0.0217   0.01077   0.00476  -0.1405  0.7524  0.0331  -3.1738   0.0000   0.0000   0.0000  -6.4269
  -5.900  -0.0102   0.01069   0.00466  -0.1405  0.7512  0.0335  -3.1064   0.0000   0.0000   0.0000  -13.9306
  -5.800   0.0013   0.01062   0.00458  -0.1406  0.7500  0.0339  -3.0390   0.0000   0.0000   0.0000  110.3957
  -5.700   0.0124   0.01040   0.00437  -0.1407  0.7487  0.0347  -2.9771   0.0000   0.0000   0.0000  11.9227
  -5.600   0.0238   0.01029   0.00426  -0.1408  0.7475  0.0353  -2.9104   0.0000   0.0000   0.0000   6.3387
  -5.500   0.0353   0.01021   0.00417  -0.1409  0.7463  0.0359  -2.8433   0.0000   0.0000   0.0000   4.3587
  -5.400   0.0468   0.01013   0.00408  -0.1410  0.7451  0.0365  -2.7770   0.0000   0.0000   0.0000   3.3489
  -5.300   0.0584   0.01006   0.00400  -0.1410  0.7441  0.0372  -2.7115   0.0000   0.0000   0.0000   2.7367
  -5.200   0.0699   0.01001   0.00392  -0.1411  0.7430  0.0378  -2.6465   0.0000   0.0000   0.0000   2.3254
  -5.100   0.0815   0.00997   0.00385  -0.1412  0.7420  0.0384  -2.5816   0.0000   0.0000   0.0000   2.0299
  -5.000   0.0928   0.00980   0.00370  -0.1413  0.7407  0.0394  -2.5200   0.0000   0.0000   0.0000   1.8134
  -4.900   0.1043   0.00971   0.00362  -0.1414  0.7394  0.0402  -2.4568   0.0000   0.0000   0.0000   1.6411
  -4.800   0.1159   0.00965   0.00356  -0.1415  0.7381  0.0411  -2.3977   0.0000   0.0000   0.0000   1.5025
  -4.700   0.1274   0.00959   0.00349  -0.1416  0.7369  0.0420  -2.3397   0.0000   0.0000   0.0000   1.3887
  -4.600   0.1390   0.00954   0.00342  -0.1416  0.7357  0.0428  -2.2823   0.0000   0.0000   0.0000   1.2937
  -4.500   0.1505   0.00943   0.00331  -0.1417  0.7345  0.0437  -2.2269   0.0000   0.0000   0.0000   1.2141
  -4.400   0.1620   0.00935   0.00322  -0.1418  0.7334  0.0448  -2.1703   0.0000   0.0000   0.0000   1.1456
  -4.300   0.1736   0.00930   0.00315  -0.1419  0.7324  0.0458  -2.1135   0.0000   0.0000   0.0000   1.0859
  -4.200   0.1852   0.00924   0.00309  -0.1420  0.7312  0.0469  -2.0574   0.0000   0.0000   0.0000   1.0336
  -4.100   0.1968   0.00919   0.00304  -0.1421  0.7299  0.0479  -2.0019   0.0000   0.0000   0.0000   0.9874
  -4.000   0.2082   0.00909   0.00295  -0.1421  0.7285  0.0494  -1.9478   0.0000   0.0000   0.0000   0.9468
  -3.900   0.2198   0.00902   0.00289  -0.1422  0.7272  0.0508  -1.8925   0.0000   0.0000   0.0000   0.9101
  -3.800   0.2314   0.00897   0.00283  -0.1423  0.7259  0.0524  -1.8378   0.0000   0.0000   0.0000   0.8770
  -3.700   0.2430   0.00891   0.00277  -0.1424  0.7247  0.0539  -1.7841   0.0000   0.0000   0.0000   0.8471
  -3.600   0.2545   0.00884   0.00270  -0.1425  0.7235  0.0558  -1.7305   0.0000   0.0000   0.0000   0.8201
  -3.500   0.2661   0.00880   0.00265  -0.1426  0.7224  0.0578  -1.6771   0.0000   0.0000   0.0000   0.7952
  -3.400   0.2777   0.00875   0.00259  -0.1427  0.7212  0.0598  -1.6248   0.0000   0.0000   0.0000   0.7725
  -3.300   0.2892   0.00867   0.00254  -0.1428  0.7197  0.0623  -1.5725   0.0000   0.0000   0.0000   0.7516
  -3.200   0.3008   0.00863   0.00250  -0.1428  0.7183  0.0648  -1.5206   0.0000   0.0000   0.0000   0.7323
  -3.100   0.3123   0.00855   0.00244  -0.1429  0.7169  0.0681  -1.4723   0.0000   0.0000   0.0000   0.7145
  -3.000   0.3239   0.00850   0.00240  -0.1430  0.7155  0.0715  -1.4252   0.0000   0.0000   0.0000   0.6978
  -2.900   0.3355   0.00844   0.00235  -0.1431  0.7143  0.0757  -1.3784   0.0000   0.0000   0.0000   0.6824
  -2.800   0.3470   0.00838   0.00230  -0.1432  0.7131  0.0801  -1.3320   0.0000   0.0000   0.0000   0.6680
  -2.700   0.3586   0.00834   0.00226  -0.1433  0.7119  0.0853  -1.2859   0.0000   0.0000   0.0000   0.6545
  -2.500   0.3817   0.00822   0.00219  -0.1435  0.7090  0.0984  -1.1948   0.0000   0.0000   0.0000   0.6301
  -2.300   0.4048   0.00810   0.00213  -0.1437  0.7061  0.1145  -1.1051   0.0000   0.0000   0.0000   0.6084
  -2.200   0.4163   0.00804   0.00210  -0.1438  0.7047  0.1235  -1.0608   0.0000   0.0000   0.0000   0.5985
  -2.100   0.4279   0.00798   0.00207  -0.1439  0.7034  0.1329  -1.0169   0.0000   0.0000   0.0000   0.5891
  -2.000   0.4394   0.00794   0.00204  -0.1440  0.7022  0.1430  -0.9734   0.0000   0.0000   0.0000   0.5802
  -1.900   0.4509   0.00790   0.00202  -0.1441  0.7008  0.1538  -0.9333   0.0000   0.0000   0.0000   0.5717
  -1.800   0.4624   0.00784   0.00201  -0.1442  0.6992  0.1650  -0.8937   0.0000   0.0000   0.0000   0.5637
  -1.600   0.4855   0.00773   0.00198  -0.1444  0.6960  0.1877  -0.8273   0.0000   0.0000   0.0000   0.5488
  -1.500   0.4970   0.00768   0.00196  -0.1445  0.6945  0.1992  -0.8348   0.0000   0.0000   0.0000   0.5419
  -1.400   0.5085   0.00764   0.00194  -0.1446  0.6931  0.2118  -0.8424   0.0000   0.0000   0.0000   0.5352
  -1.300   0.5201   0.00760   0.00192  -0.1446  0.6918  0.2256  -0.8500   0.0000   0.0000   0.0000   0.5289
  -1.200   0.5316   0.00755   0.00191  -0.1447  0.6904  0.2401  -0.8576   0.0000   0.0000   0.0000   0.5229
  -1.100   0.5431   0.00750   0.00191  -0.1449  0.6887  0.2551  -0.8652   0.0000   0.0000   0.0000   0.5171
  -1.000   0.5546   0.00744   0.00190  -0.1450  0.6870  0.2706  -0.8728   0.0000   0.0000   0.0000   0.5115
  -0.900   0.5661   0.00739   0.00190  -0.1451  0.6854  0.2871  -0.8805   0.0000   0.0000   0.0000   0.5062
  -0.800   0.5776   0.00734   0.00189  -0.1452  0.6838  0.3056  -0.8885   0.0000   0.0000   0.0000   0.5011
  -0.700   0.5890   0.00729   0.00189  -0.1453  0.6823  0.3257  -0.8966   0.0000   0.0000   0.0000   0.4962
  -0.600   0.6005   0.00725   0.00188  -0.1454  0.6809  0.3461  -0.9046   0.0000   0.0000   0.0000   0.4914
  -0.500   0.6119   0.00719   0.00189  -0.1455  0.6793  0.3678  -0.9126   0.0000   0.0000   0.0000   0.4869
  -0.400   0.6234   0.00713   0.00189  -0.1456  0.6775  0.3906  -0.9206   0.0000   0.0000   0.0000   0.4825
  -0.300   0.6348   0.00706   0.00190  -0.1457  0.6757  0.4145  -0.9288   0.0000   0.0000   0.0000   0.4783
  -0.200   0.6463   0.00701   0.00190  -0.1458  0.6740  0.4388  -0.9371   0.0000   0.0000   0.0000   0.4742
  -0.100   0.6576   0.00696   0.00191  -0.1458  0.6723  0.4641  -0.9453   0.0000   0.0000   0.0000   0.4703
   0.000   0.6690   0.00691   0.00192  -0.1459  0.6708  0.4906  -0.9537   0.0000   0.0000   0.0000   0.4665
   0.100   0.6804   0.00686   0.00193  -0.1460  0.6691  0.5176  -0.9624   0.0000   0.0000   0.0000   0.4628
   0.200   0.6917   0.00681   0.00195  -0.1461  0.6671  0.5437  -0.9714   0.0000   0.0000   0.0000   0.4592
   0.300   0.7031   0.00676   0.00197  -0.1461  0.6652  0.5682  -0.9803   0.0000   0.0000   0.0000   0.4557
   0.400   0.7144   0.00672   0.00198  -0.1462  0.6633  0.5922  -0.9893   0.0000   0.0000   0.0000   0.4524
   0.500   0.7257   0.00668   0.00200  -0.1462  0.6616  0.6158  -0.9982   0.0000   0.0000   0.0000   0.4491
   0.600   0.7368   0.00665   0.00202  -0.1462  0.6599  0.6406  -1.0071   0.0000   0.0000   0.0000   0.4459
   0.700   0.7481   0.00662   0.00205  -0.1463  0.6581  0.6643  -1.0161   0.0000   0.0000   0.0000   0.4428
   0.800   0.7594   0.00659   0.00207  -0.1463  0.6560  0.6848  -1.0253   0.0000   0.0000   0.0000   0.4398
   0.900   0.7706   0.00657   0.00209  -0.1463  0.6539  0.7038  -1.0347   0.0000   0.0000   0.0000   0.4368
   1.000   0.7817   0.00655   0.00211  -0.1463  0.6520  0.7210  -1.0441   0.0000   0.0000   0.0000   0.4340
   1.100   0.7928   0.00655   0.00213  -0.1462  0.6501  0.7372  -1.0535   0.0000   0.0000   0.0000   0.4312
   1.200   0.8038   0.00654   0.00215  -0.1462  0.6482  0.7532  -1.0629   0.0000   0.0000   0.0000   0.4285
   1.300   0.8150   0.00652   0.00218  -0.1462  0.6459  0.7688  -1.0730   0.0000   0.0000   0.0000   0.4258
   1.400   0.8260   0.00650   0.00220  -0.1461  0.6436  0.7839  -1.0832   0.0000   0.0000   0.0000   0.4232
   1.500   0.8369   0.00649   0.00222  -0.1461  0.6415  0.7985  -1.0933   0.0000   0.0000   0.0000   0.4207
   1.600   0.8476   0.00649   0.00224  -0.1459  0.6395  0.8133  -1.1033   0.0000   0.0000   0.0000   0.4182
   1.700   0.8583   0.00649   0.00227  -0.1458  0.6374  0.8287  -1.1133   0.0000   0.0000   0.0000   0.4158
   1.800   0.8690   0.00647   0.00229  -0.1457  0.6350  0.8445  -1.1234   0.0000   0.0000   0.0000   0.4134
   1.900   0.8793   0.00645   0.00232  -0.1455  0.6327  0.8608  -1.1338   0.0000   0.0000   0.0000   0.4111
   2.000   0.8892   0.00643   0.00234  -0.1451  0.6304  0.8795  -1.1439   0.0000   0.0000   0.0000   0.4087
   2.100   0.8984   0.00641   0.00235  -0.1447  0.6283  0.9018  -1.1537   0.0000   0.0000   0.0000   0.4064
   2.200   0.9073   0.00636   0.00236  -0.1441  0.6261  0.9312  -1.1632   0.0000   0.0000   0.0000   0.4040
   2.300   0.9230   0.00631   0.00234  -0.1450  0.6234  0.9936  -1.1772   0.0000   0.0000   0.0000   0.4022
   2.400   0.9345   0.00634   0.00236  -0.1451  0.6208  1.0000  -1.1890   0.0000   0.0000   0.0000   0.4002
   2.500   0.9457   0.00638   0.00238  -0.1451  0.6184  1.0000  -1.2008   0.0000   0.0000   0.0000   0.3983
   2.600   0.9570   0.00642   0.00240  -0.1452  0.6160  1.0000  -1.2128   0.0000   0.0000   0.0000   0.3964
   2.700   0.9684   0.00644   0.00243  -0.1453  0.6132  1.0000  -1.2250   0.0000   0.0000   0.0000   0.3946
   2.800   0.9797   0.00648   0.00245  -0.1453  0.6104  1.0000  -1.2371   0.0000   0.0000   0.0000   0.3928
   2.900   0.9908   0.00652   0.00247  -0.1453  0.6078  1.0000  -1.2491   0.0000   0.0000   0.0000   0.3910
   3.000   1.0020   0.00657   0.00250  -0.1454  0.6052  1.0000  -1.2614   0.0000   0.0000   0.0000   0.3893
   3.100   1.0133   0.00660   0.00253  -0.1454  0.6022  1.0000  -1.2743   0.0000   0.0000   0.0000   0.3876
   3.200   1.0244   0.00664   0.00256  -0.1455  0.5992  1.0000  -1.2871   0.0000   0.0000   0.0000   0.3859
   3.300   1.0354   0.00669   0.00259  -0.1455  0.5964  1.0000  -1.2998   0.0000   0.0000   0.0000   0.3843
   3.400   1.0466   0.00673   0.00262  -0.1455  0.5934  1.0000  -1.3129   0.0000   0.0000   0.0000   0.3827
   3.500   1.0577   0.00677   0.00266  -0.1456  0.5901  1.0000  -1.3262   0.0000   0.0000   0.0000   0.3811
   3.600   1.0686   0.00682   0.00269  -0.1455  0.5869  1.0000  -1.3396   0.0000   0.0000   0.0000   0.3796
   3.700   1.0795   0.00688   0.00273  -0.1455  0.5839  1.0000  -1.3533   0.0000   0.0000   0.0000   0.3781
   3.800   1.0907   0.00692   0.00276  -0.1456  0.5804  1.0000  -1.3674   0.0000   0.0000   0.0000   0.3766
   3.900   1.1015   0.00697   0.00280  -0.1455  0.5768  1.0000  -1.3823   0.0000   0.0000   0.0000   0.3751
   4.000   1.1122   0.00704   0.00284  -0.1455  0.5734  1.0000  -1.3970   0.0000   0.0000   0.0000   0.3737
   4.100   1.1233   0.00708   0.00289  -0.1455  0.5695  1.0000  -1.4125   0.0000   0.0000   0.0000   0.3723
   4.200   1.1340   0.00714   0.00293  -0.1455  0.5656  1.0000  -1.4278   0.0000   0.0000   0.0000   0.3709
   4.300   1.1446   0.00721   0.00298  -0.1454  0.5620  1.0000  -1.4434   0.0000   0.0000   0.0000   0.3695
   4.400   1.1555   0.00726   0.00302  -0.1454  0.5578  1.0000  -1.4594   0.0000   0.0000   0.0000   0.3682
   4.500   1.1660   0.00733   0.00307  -0.1453  0.5538  1.0000  -1.4751   0.0000   0.0000   0.0000   0.3668
   4.600   1.1766   0.00739   0.00313  -0.1453  0.5499  1.0000  -1.4914   0.0000   0.0000   0.0000   0.3655
   4.700   1.1873   0.00746   0.00318  -0.1452  0.5456  1.0000  -1.5078   0.0000   0.0000   0.0000   0.3642
   4.900   1.2083   0.00760   0.00329  -0.1451  0.5373  1.0000  -1.5408   0.0000   0.0000   0.0000   0.3617
   5.000   1.2186   0.00768   0.00335  -0.1450  0.5328  1.0000  -1.5576   0.0000   0.0000   0.0000   0.3605
   5.100   1.2289   0.00776   0.00342  -0.1449  0.5285  1.0000  -1.5751   0.0000   0.0000   0.0000   0.3592
   5.200   1.2393   0.00783   0.00348  -0.1448  0.5237  1.0000  -1.5938   0.0000   0.0000   0.0000   0.3580
   5.300   1.2492   0.00793   0.00355  -0.1447  0.5191  1.0000  -1.6126   0.0000   0.0000   0.0000   0.3568
   5.400   1.2597   0.00800   0.00361  -0.1446  0.5139  1.0000  -1.6324   0.0000   0.0000   0.0000   0.3557
   5.600   1.2796   0.00819   0.00376  -0.1443  0.5032  1.0000  -1.6720   0.0000   0.0000   0.0000   0.3534
   5.700   1.2891   0.00831   0.00386  -0.1440  0.4977  1.0000  -1.6914   0.0000   0.0000   0.0000   0.3522
   5.800   1.2992   0.00840   0.00393  -0.1439  0.4918  1.0000  -1.7122   0.0000   0.0000   0.0000   0.3511
   5.900   1.3086   0.00852   0.00402  -0.1437  0.4863  1.0000  -1.7323   0.0000   0.0000   0.0000   0.3500
   6.000   1.3185   0.00862   0.00410  -0.1435  0.4805  1.0000  -1.7533   0.0000   0.0000   0.0000   0.3489
   6.100   1.3278   0.00874   0.00420  -0.1432  0.4750  1.0000  -1.7741   0.0000   0.0000   0.0000   0.3478
   6.200   1.3376   0.00885   0.00429  -0.1431  0.4692  1.0000  -1.7970   0.0000   0.0000   0.0000   0.3467
   6.300   1.3467   0.00897   0.00439  -0.1428  0.4636  1.0000  -1.8224   0.0000   0.0000   0.0000   0.3456
   6.400   1.3562   0.00909   0.00449  -0.1426  0.4576  1.0000  -1.8483   0.0000   0.0000   0.0000   0.3446
   6.500   1.3653   0.00922   0.00459  -0.1423  0.4519  1.0000  -1.8740   0.0000   0.0000   0.0000   0.3435
   6.600   1.3745   0.00935   0.00470  -0.1420  0.4457  1.0000  -1.9010   0.0000   0.0000   0.0000   0.3424
   6.700   1.3834   0.00948   0.00481  -0.1417  0.4397  1.0000  -1.9301   0.0000   0.0000   0.0000   0.3414
   6.800   1.3919   0.00964   0.00493  -0.1413  0.4332  1.0000  -1.9589   0.0000   0.0000   0.0000   0.3403
   6.900   1.4007   0.00978   0.00505  -0.1410  0.4262  1.0000  -1.9893   0.0000   0.0000   0.0000   0.3393
   7.000   1.4089   0.00995   0.00518  -0.1405  0.4190  1.0000  -2.0189   0.0000   0.0000   0.0000   0.3383
   7.100   1.4168   0.01013   0.00533  -0.1400  0.4115  1.0000  -2.0482   0.0000   0.0000   0.0000   0.3372
   7.200   1.4251   0.01028   0.00546  -0.1396  0.4041  1.0000  -2.0783   0.0000   0.0000   0.0000   0.3362
   7.300   1.4330   0.01046   0.00560  -0.1392  0.3972  1.0000  -2.1087   0.0000   0.0000   0.0000   0.3352
   7.400   1.4407   0.01064   0.00575  -0.1386  0.3904  1.0000  -2.1406   0.0000   0.0000   0.0000   0.3342
   7.500   1.4488   0.01079   0.00589  -0.1382  0.3840  1.0000  -2.1737   0.0000   0.0000   0.0000   0.3332
   7.600   1.4559   0.01098   0.00604  -0.1376  0.3776  1.0000  -2.2053   0.0000   0.0000   0.0000   0.3321
   7.700   1.4627   0.01116   0.00619  -0.1369  0.3707  1.0000  -2.2365   0.0000   0.0000   0.0000   0.3311
   7.800   1.4695   0.01134   0.00635  -0.1362  0.3641  1.0000  -2.2676   0.0000   0.0000   0.0000   0.3300
   7.900   1.4756   0.01156   0.00653  -0.1355  0.3575  1.0000  -2.2987   0.0000   0.0000   0.0000   0.3289
   8.000   1.4825   0.01175   0.00670  -0.1348  0.3507  1.0000  -2.3320   0.0000   0.0000   0.0000   0.3279
   8.100   1.4888   0.01196   0.00689  -0.1341  0.3444  1.0000  -2.3644   0.0000   0.0000   0.0000   0.3269
   8.200   1.4949   0.01219   0.00709  -0.1334  0.3380  1.0000  -2.3963   0.0000   0.0000   0.0000   0.3259
   8.300   1.5015   0.01240   0.00728  -0.1327  0.3317  1.0000  -2.4294   0.0000   0.0000   0.0000   0.3249
   8.400   1.5072   0.01265   0.00750  -0.1320  0.3256  1.0000  -2.4610   0.0000   0.0000   0.0000   0.3239
   8.500   1.5134   0.01288   0.00771  -0.1313  0.3191  1.0000  -2.4936   0.0000   0.0000   0.0000   0.3229
   8.600   1.5193   0.01313   0.00794  -0.1306  0.3131  1.0000  -2.5259   0.0000   0.0000   0.0000   0.3219
   8.700   1.5246   0.01342   0.00819  -0.1298  0.3069  1.0000  -2.5670   0.0000   0.0000   0.0000   0.3209
   8.800   1.5307   0.01367   0.00842  -0.1291  0.3006  1.0000  -2.6100   0.0000   0.0000   0.0000   0.3200
   8.900   1.5359   0.01397   0.00869  -0.1284  0.2945  1.0000  -2.6513   0.0000   0.0000   0.0000   0.3191
   9.000   1.5413   0.01427   0.00897  -0.1276  0.2880  1.0000  -2.6930   0.0000   0.0000   0.0000   0.3181
   9.100   1.5468   0.01456   0.00924  -0.1269  0.2820  1.0000  -2.7355   0.0000   0.0000   0.0000   0.3172
   9.200   1.5517   0.01490   0.00955  -0.1262  0.2761  1.0000  -2.7763   0.0000   0.0000   0.0000   0.3163
   9.300   1.5573   0.01520   0.00983  -0.1255  0.2699  1.0000  -2.8193   0.0000   0.0000   0.0000   0.3154
   9.400   1.5624   0.01553   0.01014  -0.1248  0.2643  1.0000  -2.8611   0.0000   0.0000   0.0000   0.3145
   9.500   1.5672   0.01589   0.01047  -0.1241  0.2584  1.0000  -2.9025   0.0000   0.0000   0.0000   0.3136
   9.600   1.5725   0.01622   0.01079  -0.1234  0.2526  1.0000  -2.9451   0.0000   0.0000   0.0000   0.3127
   9.700   1.5769   0.01661   0.01115  -0.1226  0.2466  1.0000  -2.9857   0.0000   0.0000   0.0000   0.3118
   9.800   1.5815   0.01699   0.01151  -0.1219  0.2402  1.0000  -3.0270   0.0000   0.0000   0.0000   0.3110
   9.900   1.5860   0.01738   0.01188  -0.1212  0.2341  1.0000  -3.0684   0.0000   0.0000   0.0000   0.3101
  10.000   1.5900   0.01781   0.01227  -0.1204  0.2281  1.0000  -3.1083   0.0000   0.0000   0.0000   0.3093
  10.100   1.5943   0.01823   0.01266  -0.1197  0.2218  1.0000  -3.1493   0.0000   0.0000   0.0000   0.3084
  10.200   1.5986   0.01865   0.01306  -0.1190  0.2159  1.0000  -3.1905   0.0000   0.0000   0.0000   0.3076
  10.300   1.6022   0.01911   0.01350  -0.1182  0.2099  1.0000  -3.2300   0.0000   0.0000   0.0000   0.3067
  10.400   1.6060   0.01957   0.01393  -0.1174  0.2037  1.0000  -3.2700   0.0000   0.0000   0.0000   0.3059
  10.500   1.6099   0.02003   0.01436  -0.1167  0.1977  1.0000  -3.3125   0.0000   0.0000   0.0000   0.3051
  10.600   1.6132   0.02052   0.01483  -0.1159  0.1919  1.0000  -3.3540   0.0000   0.0000   0.0000   0.3043
  10.700   1.6164   0.02103   0.01531  -0.1151  0.1859  1.0000  -3.3953   0.0000   0.0000   0.0000   0.3034
  10.800   1.6201   0.02151   0.01577  -0.1144  0.1801  1.0000  -3.4383   0.0000   0.0000   0.0000   0.3027
  10.900   1.6233   0.02203   0.01626  -0.1136  0.1747  1.0000  -3.4798   0.0000   0.0000   0.0000   0.3019
  11.000   1.6263   0.02256   0.01677  -0.1129  0.1693  1.0000  -3.5211   0.0000   0.0000   0.0000   0.3011
  11.100   1.6298   0.02306   0.01725  -0.1122  0.1641  1.0000  -3.5640   0.0000   0.0000   0.0000   0.3003
  11.200   1.6327   0.02361   0.01777  -0.1114  0.1593  1.0000  -3.6051   0.0000   0.0000   0.0000   0.2995
  11.300   1.6360   0.02413   0.01828  -0.1107  0.1544  1.0000  -3.6477   0.0000   0.0000   0.0000   0.2987
  11.400   1.6393   0.02466   0.01879  -0.1100  0.1499  1.0000  -3.6902   0.0000   0.0000   0.0000   0.2980
  11.500   1.6421   0.02523   0.01934  -0.1092  0.1454  1.0000  -3.7314   0.0000   0.0000   0.0000   0.2972
  11.600   1.6456   0.02575   0.01985  -0.1086  0.1412  1.0000  -3.7751   0.0000   0.0000   0.0000   0.2965
  11.700   1.6480   0.02634   0.02042  -0.1078  0.1371  1.0000  -3.8154   0.0000   0.0000   0.0000   0.2957
  11.800   1.6515   0.02686   0.02094  -0.1071  0.1329  1.0000  -3.8593   0.0000   0.0000   0.0000   0.2950
  11.900   1.6539   0.02746   0.02152  -0.1064  0.1290  1.0000  -3.9000   0.0000   0.0000   0.0000   0.2942
  12.000   1.6570   0.02802   0.02208  -0.1057  0.1250  1.0000  -3.9428   0.0000   0.0000   0.0000   0.2935
  12.100   1.6595   0.02863   0.02267  -0.1050  0.1213  1.0000  -3.9839   0.0000   0.0000   0.0000   0.2928
  12.200   1.6622   0.02923   0.02325  -0.1043  0.1174  1.0000  -4.0259   0.0000   0.0000   0.0000   0.2921
  12.300   1.6646   0.02985   0.02386  -0.1036  0.1139  1.0000  -4.0670   0.0000   0.0000   0.0000   0.2913
  12.400   1.6671   0.03046   0.02447  -0.1029  0.1102  1.0000  -4.1086   0.0000   0.0000   0.0000   0.2906
  12.500   1.6694   0.03110   0.02510  -0.1023  0.1070  1.0000  -4.1496   0.0000   0.0000   0.0000   0.2899
  12.600   1.6718   0.03173   0.02572  -0.1016  0.1035  1.0000  -4.1909   0.0000   0.0000   0.0000   0.2892
  12.700   1.6740   0.03239   0.02638  -0.1009  0.1005  1.0000  -4.2316   0.0000   0.0000   0.0000   0.2886
  12.800   1.6763   0.03304   0.02702  -0.1003  0.0973  1.0000  -4.2732   0.0000   0.0000   0.0000   0.2879
  12.900   1.6783   0.03373   0.02770  -0.0996  0.0944  1.0000  -4.3137   0.0000   0.0000   0.0000   0.2872
  13.000   1.6808   0.03439   0.02836  -0.0990  0.0913  1.0000  -4.3556   0.0000   0.0000   0.0000   0.2865
  13.100   1.6825   0.03511   0.02908  -0.0983  0.0885  1.0000  -4.3954   0.0000   0.0000   0.0000   0.2859
  13.200   1.6850   0.03578   0.02974  -0.0978  0.0856  1.0000  -4.4379   0.0000   0.0000   0.0000   0.2852
  13.300   1.6864   0.03656   0.03051  -0.0971  0.0829  1.0000  -4.4763   0.0000   0.0000   0.0000   0.2846
  13.400   1.6891   0.03722   0.03117  -0.0966  0.0802  1.0000  -4.5199   0.0000   0.0000   0.0000   0.2840
  13.500   1.6906   0.03800   0.03194  -0.0960  0.0777  1.0000  -4.5600   0.0000   0.0000   0.0000   0.2833
  13.600   1.6928   0.03871   0.03266  -0.0954  0.0753  1.0000  -4.6046   0.0000   0.0000   0.0000   0.2827
  13.700   1.6946   0.03946   0.03341  -0.0948  0.0729  1.0000  -4.6480   0.0000   0.0000   0.0000   0.2821
  13.800   1.6960   0.04025   0.03420  -0.0943  0.0708  1.0000  -4.6901   0.0000   0.0000   0.0000   0.2815
  13.900   1.6984   0.04097   0.03493  -0.0937  0.0686  1.0000  -4.7414   0.0000   0.0000   0.0000   0.2809
  14.000   1.6998   0.04179   0.03574  -0.0932  0.0666  1.0000  -4.7890   0.0000   0.0000   0.0000   0.2803
  14.100   1.7017   0.04257   0.03653  -0.0927  0.0648  1.0000  -4.8388   0.0000   0.0000   0.0000   0.2797
  14.200   1.7039   0.04332   0.03729  -0.0922  0.0630  1.0000  -4.8900   0.0000   0.0000   0.0000   0.2792
  14.300   1.7052   0.04417   0.03814  -0.0917  0.0613  1.0000  -4.9376   0.0000   0.0000   0.0000   0.2786
  14.400   1.7069   0.04498   0.03896  -0.0912  0.0598  1.0000  -4.9872   0.0000   0.0000   0.0000   0.2780
  14.500   1.7092   0.04575   0.03974  -0.0908  0.0582  1.0000  -5.0392   0.0000   0.0000   0.0000   0.2775
  14.600   1.7105   0.04661   0.04061  -0.0903  0.0567  1.0000  -5.0876   0.0000   0.0000   0.0000   0.2770
  14.700   1.7113   0.04752   0.04153  -0.0898  0.0554  1.0000  -5.1335   0.0000   0.0000   0.0000   0.2764
  14.800   1.7138   0.04828   0.04230  -0.0894  0.0541  1.0000  -5.1869   0.0000   0.0000   0.0000   0.2759
  14.900   1.7154   0.04913   0.04317  -0.0890  0.0528  1.0000  -5.2364   0.0000   0.0000   0.0000   0.2754
  15.000   1.7163   0.05004   0.04408  -0.0885  0.0515  1.0000  -5.2836   0.0000   0.0000   0.0000   0.2748
  15.100   1.7171   0.05099   0.04504  -0.0881  0.0504  1.0000  -5.3297   0.0000   0.0000   0.0000   0.2743
  15.200   1.7192   0.05180   0.04588  -0.0877  0.0493  1.0000  -5.3822   0.0000   0.0000   0.0000   0.2738
  15.300   1.7208   0.05268   0.04677  -0.0873  0.0482  1.0000  -5.4323   0.0000   0.0000   0.0000   0.2733
  15.400   1.7217   0.05362   0.04772  -0.0869  0.0471  1.0000  -5.4798   0.0000   0.0000   0.0000   0.2728
  15.500   1.7218   0.05466   0.04877  -0.0865  0.0461  1.0000  -5.5236   0.0000   0.0000   0.0000   0.2723
  15.600   1.7238   0.05552   0.04966  -0.0862  0.0451  1.0000  -5.5756   0.0000   0.0000   0.0000   0.2719
  15.700   1.7253   0.05643   0.05058  -0.0858  0.0441  1.0000  -5.6262   0.0000   0.0000   0.0000   0.2714
  15.800   1.7262   0.05741   0.05158  -0.0855  0.0431  1.0000  -5.6739   0.0000   0.0000   0.0000   0.2709
  15.900   1.7266   0.05844   0.05262  -0.0851  0.0421  1.0000  -5.7195   0.0000   0.0000   0.0000   0.2705
  16.000   1.7266   0.05954   0.05373  -0.0848  0.0413  1.0000  -5.7627   0.0000   0.0000   0.0000   0.2700
  16.100   1.7283   0.06044   0.05466  -0.0845  0.0404  1.0000  -5.8146   0.0000   0.0000   0.0000   0.2696
  16.200   1.7293   0.06141   0.05565  -0.0842  0.0395  1.0000  -5.8633   0.0000   0.0000   0.0000   0.2692
  16.300   1.7295   0.06248   0.05674  -0.0839  0.0386  1.0000  -5.9082   0.0000   0.0000   0.0000   0.2687
  16.400   1.7292   0.06361   0.05788  -0.0836  0.0378  1.0000  -5.9508   0.0000   0.0000   0.0000   0.2683
  16.500   1.7288   0.06477   0.05905  -0.0833  0.0370  1.0000  -5.9928   0.0000   0.0000   0.0000   0.2679
  16.600   1.7300   0.06575   0.06006  -0.0831  0.0362  1.0000  -6.0426   0.0000   0.0000   0.0000   0.2675
  16.700   1.7308   0.06679   0.06112  -0.0828  0.0354  1.0000  -6.0901   0.0000   0.0000   0.0000   0.2671
  16.800   1.7306   0.06794   0.06229  -0.0826  0.0347  1.0000  -6.1336   0.0000   0.0000   0.0000   0.2667
  16.900   1.7300   0.06915   0.06352  -0.0824  0.0340  1.0000  -6.1748   0.0000   0.0000   0.0000   0.2664
  17.000   1.7286   0.07045   0.06484  -0.0821  0.0333  1.0000  -6.2121   0.0000   0.0000   0.0000   0.2660
  17.100   1.7292   0.07155   0.06596  -0.0819  0.0326  1.0000  -6.2589   0.0000   0.0000   0.0000   0.2657
  17.200   1.7298   0.07263   0.06707  -0.0818  0.0319  1.0000  -6.3063   0.0000   0.0000   0.0000   0.2653
  17.300   1.7296   0.07383   0.06829  -0.0816  0.0312  1.0000  -6.3493   0.0000   0.0000   0.0000   0.2649
  17.400   1.7288   0.07509   0.06958  -0.0814  0.0305  1.0000  -6.3897   0.0000   0.0000   0.0000   0.2646
  17.500   1.7274   0.07643   0.07093  -0.0813  0.0299  1.0000  -6.4272   0.0000   0.0000   0.0000   0.2643
  17.600   1.7252   0.07790   0.07242  -0.0811  0.0293  1.0000  -6.4598   0.0000   0.0000   0.0000   0.2640
  17.700   1.7260   0.07898   0.07353  -0.0810  0.0287  1.0000  -6.5080   0.0000   0.0000   0.0000   0.2637
  17.800   1.7257   0.08020   0.07478  -0.0809  0.0281  1.0000  -6.5507   0.0000   0.0000   0.0000   0.2634
  17.900   1.7249   0.08148   0.07608  -0.0808  0.0276  1.0000  -6.5909   0.0000   0.0000   0.0000   0.2631
  18.000   1.7236   0.08282   0.07745  -0.0807  0.0270  1.0000  -6.6288   0.0000   0.0000   0.0000   0.2628
  18.100   1.7217   0.08427   0.07891  -0.0807  0.0265  1.0000  -6.6631   0.0000   0.0000   0.0000   0.2626
  18.200   1.7193   0.08577   0.08045  -0.0806  0.0261  1.0000  -6.6947   0.0000   0.0000   0.0000   0.2624
  18.300   1.7171   0.08729   0.08199  -0.0806  0.0256  1.0000  -6.7264   0.0000   0.0000   0.0000   0.2622
  18.400   1.7170   0.08852   0.08325  -0.0806  0.0252  1.0000  -6.7701   0.0000   0.0000   0.0000   0.2619
  18.500   1.7161   0.08987   0.08463  -0.0806  0.0248  1.0000  -6.8092   0.0000   0.0000   0.0000   0.2617
  18.600   1.7149   0.09126   0.08606  -0.0806  0.0244  1.0000  -6.8463   0.0000   0.0000   0.0000   0.2615
  18.700   1.7133   0.09271   0.08753  -0.0807  0.0239  1.0000  -6.8819   0.0000   0.0000   0.0000   0.2613
  18.800   1.7112   0.09423   0.08908  -0.0807  0.0236  1.0000  -6.9144   0.0000   0.0000   0.0000   0.2611
  18.900   1.7090   0.09578   0.09065  -0.0808  0.0232  1.0000  -6.9460   0.0000   0.0000   0.0000   0.2610
  19.000   1.7059   0.09745   0.09235  -0.0810  0.0229  1.0000  -6.9728   0.0000   0.0000   0.0000   0.2609
  19.100   1.7025   0.09918   0.09411  -0.0811  0.0226  1.0000  -6.9966   0.0000   0.0000   0.0000   0.2608
  19.200   1.6996   0.10085   0.09581  -0.0813  0.0223  1.0000  -7.0234   0.0000   0.0000   0.0000   0.2607
  19.300   1.6987   0.10221   0.09721  -0.0814  0.0220  1.0000  -7.0617   0.0000   0.0000   0.0000   0.2605
  19.400   1.6971   0.10369   0.09872  -0.0816  0.0218  1.0000  -7.0960   0.0000   0.0000   0.0000   0.2604
  19.500   1.6955   0.10517   0.10024  -0.0817  0.0215  1.0000  -7.1305   0.0000   0.0000   0.0000   0.2603
  19.600   1.6934   0.10672   0.10183  -0.0819  0.0212  1.0000  -7.1645   0.0000   0.0000   0.0000   0.2602
  19.700   1.6911   0.10832   0.10346  -0.0822  0.0210  1.0000  -7.1968   0.0000   0.0000   0.0000   0.2601
  19.800   1.6887   0.10994   0.10511  -0.0824  0.0207  1.0000  -7.2286   0.0000   0.0000   0.0000   0.2601
  19.900   1.6859   0.11162   0.10682  -0.0827  0.0205  1.0000  -7.2577   0.0000   0.0000   0.0000   0.2601
  20.000   1.6832   0.11331   0.10854  -0.0830  0.0202  1.0000  -7.2866   0.0000   0.0000   0.0000   0.2601


