xflr5 v6.57

 Calculated polar for: reaf

 1 1 Reynolds number fixed          Mach number fixed         

 xtrf =   1.000 (top)        1.000 (bottom)
 Mach =   0.000     Re =     0.640 e 6     Ncrit =   9.000

  alpha     CL        CD       CDp       Cm    Top Xtr Bot Xtr   Cpmin    Chinge    XCp    
 ------- -------- --------- --------- -------- ------- ------- -------- --------- ---------
 -10.000  -0.4452   0.02290   0.01808  -0.1372  0.8168  0.0239  -6.1205   0.0000   0.0000   0.0000  -0.0793
  -9.900  -0.4356   0.02251   0.01764  -0.1374  0.8153  0.0241  -6.0392   0.0000   0.0000   0.0000  -0.0866
  -9.800  -0.4260   0.02210   0.01717  -0.1375  0.8140  0.0243  -5.9601   0.0000   0.0000   0.0000  -0.0943
  -9.700  -0.4164   0.02167   0.01667  -0.1377  0.8128  0.0245  -5.8830   0.0000   0.0000   0.0000  -0.1022
  -9.600  -0.4067   0.02124   0.01616  -0.1378  0.8117  0.0248  -5.8073   0.0000   0.0000   0.0000  -0.1106
  -9.500  -0.3970   0.02081   0.01564  -0.1380  0.8107  0.0250  -5.7324   0.0000   0.0000   0.0000  -0.1195
  -9.400  -0.3871   0.02039   0.01514  -0.1381  0.8094  0.0252  -5.6574   0.0000   0.0000   0.0000  -0.1290
  -9.300  -0.3771   0.01999   0.01467  -0.1383  0.8080  0.0254  -5.5816   0.0000   0.0000   0.0000  -0.1390
  -9.200  -0.3670   0.01964   0.01423  -0.1384  0.8066  0.0256  -5.5044   0.0000   0.0000   0.0000  -0.1498
  -9.100  -0.3566   0.01933   0.01384  -0.1385  0.8053  0.0258  -5.4250   0.0000   0.0000   0.0000  -0.1614
  -9.000  -0.3462   0.01902   0.01344  -0.1386  0.8041  0.0260  -5.3457   0.0000   0.0000   0.0000  -0.1737
  -8.900  -0.3372   0.01829   0.01267  -0.1387  0.8029  0.0263  -5.2805   0.0000   0.0000   0.0000  -0.1850
  -8.800  -0.3269   0.01797   0.01234  -0.1388  0.8019  0.0266  -5.1947   0.0000   0.0000   0.0000  -0.1986
  -8.700  -0.3163   0.01776   0.01211  -0.1389  0.8009  0.0268  -5.1047   0.0000   0.0000   0.0000  -0.2135
  -8.600  -0.3056   0.01757   0.01192  -0.1390  0.7996  0.0271  -5.0145   0.0000   0.0000   0.0000  -0.2297
  -8.500  -0.2948   0.01738   0.01172  -0.1391  0.7982  0.0274  -4.9257   0.0000   0.0000   0.0000  -0.2472
  -8.400  -0.2840   0.01719   0.01150  -0.1392  0.7969  0.0277  -4.8391   0.0000   0.0000   0.0000  -0.2660
  -8.300  -0.2732   0.01697   0.01124  -0.1393  0.7956  0.0280  -4.7549   0.0000   0.0000   0.0000  -0.2862
  -8.200  -0.2624   0.01674   0.01096  -0.1394  0.7945  0.0282  -4.6794   0.0000   0.0000   0.0000  -0.3081
  -8.100  -0.2516   0.01650   0.01067  -0.1394  0.7934  0.0285  -4.6060   0.0000   0.0000   0.0000  -0.3319
  -8.000  -0.2407   0.01626   0.01038  -0.1395  0.7924  0.0288  -4.5334   0.0000   0.0000   0.0000  -0.3579
  -7.900  -0.2298   0.01604   0.01010  -0.1396  0.7914  0.0291  -4.4611   0.0000   0.0000   0.0000  -0.3866
  -7.800  -0.2189   0.01583   0.00984  -0.1396  0.7901  0.0294  -4.3888   0.0000   0.0000   0.0000  -0.4182
  -7.700  -0.2078   0.01565   0.00962  -0.1397  0.7888  0.0297  -4.3155   0.0000   0.0000   0.0000  -0.4536
  -7.600  -0.1972   0.01532   0.00924  -0.1398  0.7875  0.0299  -4.2485   0.0000   0.0000   0.0000  -0.4913
  -7.500  -0.1869   0.01492   0.00884  -0.1398  0.7863  0.0303  -4.1805   0.0000   0.0000   0.0000  -0.5322
  -7.400  -0.1760   0.01470   0.00861  -0.1399  0.7851  0.0306  -4.1047   0.0000   0.0000   0.0000  -0.5802
  -7.300  -0.1650   0.01453   0.00843  -0.1400  0.7840  0.0310  -4.0275   0.0000   0.0000   0.0000  -0.6356
  -7.200  -0.1538   0.01437   0.00825  -0.1401  0.7830  0.0313  -3.9506   0.0000   0.0000   0.0000  -0.6994
  -7.100  -0.1427   0.01424   0.00809  -0.1402  0.7821  0.0317  -3.8741   0.0000   0.0000   0.0000  -0.7736
  -7.000  -0.1315   0.01410   0.00793  -0.1402  0.7809  0.0321  -3.7988   0.0000   0.0000   0.0000  -0.8602
  -6.900  -0.1203   0.01395   0.00777  -0.1403  0.7795  0.0326  -3.7248   0.0000   0.0000   0.0000  -0.9629
  -6.800  -0.1091   0.01382   0.00761  -0.1404  0.7782  0.0331  -3.6517   0.0000   0.0000   0.0000  -1.0873
  -6.700  -0.0978   0.01369   0.00744  -0.1404  0.7770  0.0335  -3.5791   0.0000   0.0000   0.0000  -1.2414
  -6.600  -0.0864   0.01360   0.00730  -0.1405  0.7758  0.0339  -3.5064   0.0000   0.0000   0.0000  -1.4378
  -6.500  -0.0758   0.01324   0.00693  -0.1405  0.7747  0.0344  -3.4420   0.0000   0.0000   0.0000  -1.6731
  -6.400  -0.0648   0.01304   0.00673  -0.1406  0.7736  0.0349  -3.3747   0.0000   0.0000   0.0000  -2.0010
  -6.300  -0.0535   0.01291   0.00659  -0.1407  0.7727  0.0353  -3.3074   0.0000   0.0000   0.0000  -2.4737
  -6.200  -0.0422   0.01279   0.00646  -0.1408  0.7716  0.0358  -3.2406   0.0000   0.0000   0.0000  -3.2015
  -6.100  -0.0310   0.01266   0.00633  -0.1408  0.7703  0.0364  -3.1754   0.0000   0.0000   0.0000  -4.4491
  -6.000  -0.0197   0.01254   0.00619  -0.1409  0.7690  0.0369  -3.1112   0.0000   0.0000   0.0000  -7.1332
  -5.900  -0.0084   0.01242   0.00605  -0.1410  0.7677  0.0375  -3.0478   0.0000   0.0000   0.0000  -17.1022
  -5.800   0.0030   0.01232   0.00592  -0.1410  0.7665  0.0380  -2.9845   0.0000   0.0000   0.0000  48.4184
  -5.700   0.0142   0.01215   0.00572  -0.1411  0.7653  0.0386  -2.9239   0.0000   0.0000   0.0000  10.4817
  -5.600   0.0253   0.01194   0.00552  -0.1412  0.7642  0.0393  -2.8617   0.0000   0.0000   0.0000   5.9985
  -5.500   0.0367   0.01183   0.00540  -0.1413  0.7633  0.0400  -2.7965   0.0000   0.0000   0.0000   4.2166
  -5.400   0.0482   0.01175   0.00530  -0.1413  0.7623  0.0407  -2.7314   0.0000   0.0000   0.0000   3.2721
  -5.300   0.0595   0.01166   0.00521  -0.1414  0.7611  0.0415  -2.6680   0.0000   0.0000   0.0000   2.6949
  -5.200   0.0709   0.01158   0.00511  -0.1415  0.7597  0.0423  -2.6056   0.0000   0.0000   0.0000   2.3017
  -5.100   0.0824   0.01152   0.00502  -0.1415  0.7583  0.0430  -2.5435   0.0000   0.0000   0.0000   2.0149
  -5.000   0.0935   0.01130   0.00482  -0.1416  0.7571  0.0440  -2.4847   0.0000   0.0000   0.0000   1.8064
  -4.900   0.1049   0.01119   0.00472  -0.1417  0.7559  0.0449  -2.4223   0.0000   0.0000   0.0000   1.6373
  -4.800   0.1163   0.01110   0.00462  -0.1418  0.7547  0.0458  -2.3630   0.0000   0.0000   0.0000   1.5003
  -4.700   0.1279   0.01102   0.00452  -0.1418  0.7537  0.0468  -2.3075   0.0000   0.0000   0.0000   1.3874
  -4.600   0.1395   0.01096   0.00442  -0.1419  0.7527  0.0477  -2.2525   0.0000   0.0000   0.0000   1.2927
  -4.500   0.1508   0.01082   0.00428  -0.1420  0.7515  0.0488  -2.1996   0.0000   0.0000   0.0000   1.2145
  -4.400   0.1621   0.01071   0.00419  -0.1421  0.7501  0.0499  -2.1447   0.0000   0.0000   0.0000   1.1473
  -4.300   0.1735   0.01063   0.00412  -0.1422  0.7487  0.0511  -2.0895   0.0000   0.0000   0.0000   1.0881
  -4.200   0.1850   0.01057   0.00404  -0.1422  0.7474  0.0525  -2.0352   0.0000   0.0000   0.0000   1.0359
  -4.100   0.1965   0.01048   0.00394  -0.1423  0.7462  0.0538  -1.9820   0.0000   0.0000   0.0000   0.9899
  -4.000   0.2079   0.01037   0.00384  -0.1424  0.7450  0.0554  -1.9281   0.0000   0.0000   0.0000   0.9492
  -3.900   0.2195   0.01031   0.00377  -0.1425  0.7439  0.0570  -1.8740   0.0000   0.0000   0.0000   0.9123
  -3.800   0.2311   0.01026   0.00369  -0.1426  0.7429  0.0587  -1.8210   0.0000   0.0000   0.0000   0.8789
  -3.700   0.2426   0.01015   0.00359  -0.1427  0.7417  0.0605  -1.7691   0.0000   0.0000   0.0000   0.8492
  -3.600   0.2540   0.01007   0.00353  -0.1427  0.7403  0.0625  -1.7169   0.0000   0.0000   0.0000   0.8223
  -3.500   0.2655   0.01002   0.00347  -0.1428  0.7388  0.0647  -1.6652   0.0000   0.0000   0.0000   0.7975
  -3.400   0.2769   0.00992   0.00339  -0.1429  0.7374  0.0673  -1.6140   0.0000   0.0000   0.0000   0.7749
  -3.300   0.2884   0.00986   0.00333  -0.1429  0.7361  0.0702  -1.5626   0.0000   0.0000   0.0000   0.7539
  -3.200   0.2999   0.00977   0.00326  -0.1430  0.7349  0.0733  -1.5120   0.0000   0.0000   0.0000   0.7345
  -3.100   0.3115   0.00971   0.00319  -0.1431  0.7337  0.0769  -1.4647   0.0000   0.0000   0.0000   0.7164
  -3.000   0.3231   0.00964   0.00312  -0.1432  0.7327  0.0809  -1.4185   0.0000   0.0000   0.0000   0.6998
  -2.900   0.3346   0.00957   0.00307  -0.1433  0.7314  0.0857  -1.3728   0.0000   0.0000   0.0000   0.6843
  -2.700   0.3574   0.00942   0.00298  -0.1435  0.7283  0.0979  -1.2824   0.0000   0.0000   0.0000   0.6565
  -2.600   0.3689   0.00935   0.00293  -0.1435  0.7269  0.1054  -1.2374   0.0000   0.0000   0.0000   0.6438
  -2.400   0.3919   0.00920   0.00284  -0.1437  0.7243  0.1234  -1.1481   0.0000   0.0000   0.0000   0.6207
  -2.300   0.4035   0.00914   0.00280  -0.1439  0.7231  0.1339  -1.1037   0.0000   0.0000   0.0000   0.6101
  -2.200   0.4151   0.00908   0.00276  -0.1440  0.7220  0.1454  -1.0596   0.0000   0.0000   0.0000   0.6001
  -2.000   0.4379   0.00895   0.00273  -0.1441  0.7189  0.1692  -0.9738   0.0000   0.0000   0.0000   0.5818
  -1.900   0.4493   0.00889   0.00270  -0.1442  0.7173  0.1817  -0.9342   0.0000   0.0000   0.0000   0.5734
  -1.800   0.4608   0.00883   0.00268  -0.1443  0.7159  0.1944  -0.8949   0.0000   0.0000   0.0000   0.5653
  -1.700   0.4723   0.00877   0.00265  -0.1444  0.7145  0.2076  -0.8558   0.0000   0.0000   0.0000   0.5576
  -1.600   0.4838   0.00871   0.00263  -0.1445  0.7132  0.2220  -0.8250   0.0000   0.0000   0.0000   0.5503
  -1.500   0.4954   0.00866   0.00260  -0.1446  0.7120  0.2374  -0.8326   0.0000   0.0000   0.0000   0.5433
  -1.400   0.5068   0.00860   0.00259  -0.1447  0.7105  0.2531  -0.8400   0.0000   0.0000   0.0000   0.5366
  -1.300   0.5182   0.00854   0.00259  -0.1448  0.7088  0.2697  -0.8475   0.0000   0.0000   0.0000   0.5303
  -1.200   0.5296   0.00847   0.00258  -0.1449  0.7071  0.2870  -0.8550   0.0000   0.0000   0.0000   0.5243
  -1.100   0.5410   0.00841   0.00257  -0.1450  0.7056  0.3066  -0.8626   0.0000   0.0000   0.0000   0.5184
  -1.000   0.5524   0.00834   0.00255  -0.1451  0.7041  0.3278  -0.8702   0.0000   0.0000   0.0000   0.5128
  -0.900   0.5639   0.00828   0.00254  -0.1452  0.7028  0.3497  -0.8780   0.0000   0.0000   0.0000   0.5075
  -0.800   0.5755   0.00823   0.00253  -0.1453  0.7015  0.3728  -0.8861   0.0000   0.0000   0.0000   0.5023
  -0.700   0.5867   0.00816   0.00254  -0.1454  0.6998  0.3972  -0.8939   0.0000   0.0000   0.0000   0.4974
  -0.600   0.5980   0.00809   0.00255  -0.1455  0.6980  0.4229  -0.9018   0.0000   0.0000   0.0000   0.4927
  -0.500   0.6093   0.00802   0.00255  -0.1455  0.6963  0.4491  -0.9098   0.0000   0.0000   0.0000   0.4881
  -0.400   0.6207   0.00795   0.00256  -0.1456  0.6947  0.4768  -0.9177   0.0000   0.0000   0.0000   0.4837
  -0.300   0.6320   0.00789   0.00256  -0.1457  0.6932  0.5049  -0.9260   0.0000   0.0000   0.0000   0.4794
  -0.200   0.6434   0.00783   0.00257  -0.1457  0.6918  0.5333  -0.9342   0.0000   0.0000   0.0000   0.4753
  -0.100   0.6547   0.00778   0.00258  -0.1458  0.6903  0.5605  -0.9424   0.0000   0.0000   0.0000   0.4713
   0.000   0.6658   0.00772   0.00261  -0.1458  0.6884  0.5869  -0.9507   0.0000   0.0000   0.0000   0.4674
   0.100   0.6769   0.00767   0.00263  -0.1458  0.6866  0.6127  -0.9592   0.0000   0.0000   0.0000   0.4637
   0.200   0.6880   0.00762   0.00265  -0.1458  0.6848  0.6388  -0.9680   0.0000   0.0000   0.0000   0.4600
   0.300   0.6991   0.00758   0.00266  -0.1457  0.6831  0.6639  -0.9769   0.0000   0.0000   0.0000   0.4564
   0.400   0.7102   0.00755   0.00267  -0.1457  0.6816  0.6865  -0.9858   0.0000   0.0000   0.0000   0.4530
   0.500   0.7214   0.00753   0.00269  -0.1457  0.6801  0.7075  -0.9946   0.0000   0.0000   0.0000   0.4496
   0.600   0.7322   0.00750   0.00272  -0.1456  0.6780  0.7265  -1.0033   0.0000   0.0000   0.0000   0.4463
   0.700   0.7431   0.00747   0.00274  -0.1455  0.6760  0.7444  -1.0121   0.0000   0.0000   0.0000   0.4432
   0.800   0.7539   0.00745   0.00276  -0.1454  0.6741  0.7616  -1.0211   0.0000   0.0000   0.0000   0.4401
   1.000   0.7756   0.00741   0.00278  -0.1452  0.6708  0.7947  -1.0395   0.0000   0.0000   0.0000   0.4341
   1.100   0.7862   0.00740   0.00280  -0.1450  0.6689  0.8111  -1.0486   0.0000   0.0000   0.0000   0.4312
   1.200   0.7965   0.00737   0.00283  -0.1448  0.6667  0.8274  -1.0576   0.0000   0.0000   0.0000   0.4284
   1.300   0.8068   0.00735   0.00284  -0.1446  0.6646  0.8443  -1.0671   0.0000   0.0000   0.0000   0.4257
   1.400   0.8168   0.00732   0.00285  -0.1442  0.6627  0.8616  -1.0767   0.0000   0.0000   0.0000   0.4229
   1.500   0.8264   0.00729   0.00286  -0.1438  0.6609  0.8810  -1.0861   0.0000   0.0000   0.0000   0.4202
   1.600   0.8355   0.00726   0.00286  -0.1433  0.6592  0.9036  -1.0952   0.0000   0.0000   0.0000   0.4175
   1.700   0.8448   0.00720   0.00286  -0.1427  0.6568  0.9325  -1.1043   0.0000   0.0000   0.0000   0.4149
   1.800   0.8611   0.00715   0.00283  -0.1438  0.6544  0.9827  -1.1177   0.0000   0.0000   0.0000   0.4128
   1.900   0.8733   0.00716   0.00283  -0.1440  0.6522  1.0000  -1.1292   0.0000   0.0000   0.0000   0.4106
   2.000   0.8848   0.00720   0.00284  -0.1441  0.6503  1.0000  -1.1403   0.0000   0.0000   0.0000   0.4084
   2.100   0.8962   0.00723   0.00285  -0.1442  0.6482  1.0000  -1.1514   0.0000   0.0000   0.0000   0.4063
   2.200   0.9075   0.00725   0.00287  -0.1443  0.6457  1.0000  -1.1623   0.0000   0.0000   0.0000   0.4042
   2.300   0.9189   0.00728   0.00289  -0.1443  0.6433  1.0000  -1.1735   0.0000   0.0000   0.0000   0.4022
   2.400   0.9302   0.00731   0.00290  -0.1444  0.6410  1.0000  -1.1851   0.0000   0.0000   0.0000   0.4002
   2.500   0.9415   0.00735   0.00291  -0.1444  0.6390  1.0000  -1.1970   0.0000   0.0000   0.0000   0.3983
   2.600   0.9528   0.00738   0.00294  -0.1445  0.6365  1.0000  -1.2090   0.0000   0.0000   0.0000   0.3964
   2.700   0.9640   0.00741   0.00297  -0.1445  0.6338  1.0000  -1.2210   0.0000   0.0000   0.0000   0.3945
   2.800   0.9752   0.00744   0.00299  -0.1446  0.6313  1.0000  -1.2330   0.0000   0.0000   0.0000   0.3927
   2.900   0.9864   0.00748   0.00300  -0.1446  0.6290  1.0000  -1.2450   0.0000   0.0000   0.0000   0.3909
   3.000   0.9975   0.00752   0.00303  -0.1446  0.6265  1.0000  -1.2573   0.0000   0.0000   0.0000   0.3892
   3.100   1.0087   0.00755   0.00306  -0.1446  0.6236  1.0000  -1.2700   0.0000   0.0000   0.0000   0.3875
   3.200   1.0197   0.00759   0.00309  -0.1447  0.6208  1.0000  -1.2828   0.0000   0.0000   0.0000   0.3858
   3.300   1.0308   0.00763   0.00311  -0.1447  0.6183  1.0000  -1.2955   0.0000   0.0000   0.0000   0.3842
   3.400   1.0418   0.00768   0.00314  -0.1447  0.6157  1.0000  -1.3085   0.0000   0.0000   0.0000   0.3826
   3.500   1.0529   0.00771   0.00318  -0.1447  0.6126  1.0000  -1.3217   0.0000   0.0000   0.0000   0.3810
   3.600   1.0639   0.00775   0.00321  -0.1447  0.6096  1.0000  -1.3351   0.0000   0.0000   0.0000   0.3794
   3.700   1.0747   0.00781   0.00324  -0.1447  0.6070  1.0000  -1.3487   0.0000   0.0000   0.0000   0.3779
   3.800   1.0857   0.00785   0.00328  -0.1447  0.6038  1.0000  -1.3627   0.0000   0.0000   0.0000   0.3764
   3.900   1.0966   0.00789   0.00332  -0.1447  0.6006  1.0000  -1.3774   0.0000   0.0000   0.0000   0.3749
   4.000   1.1074   0.00794   0.00335  -0.1446  0.5975  1.0000  -1.3922   0.0000   0.0000   0.0000   0.3735
   4.100   1.1182   0.00800   0.00340  -0.1446  0.5945  1.0000  -1.4074   0.0000   0.0000   0.0000   0.3720
   4.200   1.1290   0.00804   0.00344  -0.1446  0.5909  1.0000  -1.4228   0.0000   0.0000   0.0000   0.3706
   4.300   1.1397   0.00809   0.00349  -0.1445  0.5874  1.0000  -1.4383   0.0000   0.0000   0.0000   0.3693
   4.400   1.1502   0.00816   0.00353  -0.1444  0.5842  1.0000  -1.4540   0.0000   0.0000   0.0000   0.3679
   4.500   1.1610   0.00820   0.00358  -0.1444  0.5803  1.0000  -1.4699   0.0000   0.0000   0.0000   0.3666
   4.600   1.1715   0.00827   0.00363  -0.1443  0.5765  1.0000  -1.4860   0.0000   0.0000   0.0000   0.3652
   4.700   1.1819   0.00834   0.00368  -0.1442  0.5730  1.0000  -1.5022   0.0000   0.0000   0.0000   0.3639
   4.800   1.1926   0.00839   0.00373  -0.1442  0.5689  1.0000  -1.5186   0.0000   0.0000   0.0000   0.3627
   4.900   1.2029   0.00846   0.00379  -0.1441  0.5650  1.0000  -1.5350   0.0000   0.0000   0.0000   0.3614
   5.000   1.2132   0.00853   0.00385  -0.1440  0.5612  1.0000  -1.5518   0.0000   0.0000   0.0000   0.3602
   5.100   1.2237   0.00859   0.00391  -0.1439  0.5569  1.0000  -1.5691   0.0000   0.0000   0.0000   0.3589
   5.200   1.2337   0.00868   0.00397  -0.1437  0.5530  1.0000  -1.5874   0.0000   0.0000   0.0000   0.3577
   5.300   1.2441   0.00874   0.00403  -0.1436  0.5487  1.0000  -1.6065   0.0000   0.0000   0.0000   0.3565
   5.400   1.2542   0.00882   0.00410  -0.1435  0.5443  1.0000  -1.6257   0.0000   0.0000   0.0000   0.3553
   5.500   1.2642   0.00891   0.00417  -0.1433  0.5402  1.0000  -1.6454   0.0000   0.0000   0.0000   0.3542
   5.600   1.2744   0.00899   0.00424  -0.1432  0.5354  1.0000  -1.6654   0.0000   0.0000   0.0000   0.3530
   5.700   1.2840   0.00909   0.00432  -0.1430  0.5309  1.0000  -1.6849   0.0000   0.0000   0.0000   0.3518
   5.800   1.2940   0.00917   0.00440  -0.1428  0.5259  1.0000  -1.7055   0.0000   0.0000   0.0000   0.3507
   5.900   1.3035   0.00927   0.00448  -0.1426  0.5208  1.0000  -1.7257   0.0000   0.0000   0.0000   0.3496
   6.000   1.3133   0.00937   0.00457  -0.1424  0.5155  1.0000  -1.7463   0.0000   0.0000   0.0000   0.3485
   6.100   1.3226   0.00948   0.00466  -0.1421  0.5101  1.0000  -1.7672   0.0000   0.0000   0.0000   0.3474
   6.200   1.3321   0.00958   0.00475  -0.1419  0.5047  1.0000  -1.7889   0.0000   0.0000   0.0000   0.3463
   6.300   1.3412   0.00971   0.00485  -0.1416  0.4991  1.0000  -1.8138   0.0000   0.0000   0.0000   0.3452
   6.400   1.3506   0.00981   0.00494  -0.1413  0.4936  1.0000  -1.8396   0.0000   0.0000   0.0000   0.3441
   6.500   1.3595   0.00995   0.00505  -0.1410  0.4880  1.0000  -1.8648   0.0000   0.0000   0.0000   0.3430
   6.600   1.3687   0.01006   0.00516  -0.1407  0.4825  1.0000  -1.8916   0.0000   0.0000   0.0000   0.3420
   6.700   1.3773   0.01020   0.00527  -0.1404  0.4768  1.0000  -1.9195   0.0000   0.0000   0.0000   0.3409
   6.800   1.3863   0.01032   0.00538  -0.1401  0.4710  1.0000  -1.9487   0.0000   0.0000   0.0000   0.3399
   7.000   1.4033   0.01061   0.00563  -0.1393  0.4592  1.0000  -2.0085   0.0000   0.0000   0.0000   0.3378
   7.100   1.4112   0.01077   0.00576  -0.1388  0.4533  1.0000  -2.0377   0.0000   0.0000   0.0000   0.3367
   7.200   1.4195   0.01092   0.00589  -0.1384  0.4466  1.0000  -2.0677   0.0000   0.0000   0.0000   0.3357
   7.300   1.4272   0.01109   0.00604  -0.1379  0.4400  1.0000  -2.0973   0.0000   0.0000   0.0000   0.3347
   7.400   1.4343   0.01129   0.00620  -0.1372  0.4330  1.0000  -2.1272   0.0000   0.0000   0.0000   0.3336
   7.500   1.4419   0.01145   0.00635  -0.1367  0.4257  1.0000  -2.1594   0.0000   0.0000   0.0000   0.3326
   7.600   1.4487   0.01165   0.00651  -0.1360  0.4189  1.0000  -2.1902   0.0000   0.0000   0.0000   0.3315
   7.700   1.4547   0.01184   0.00668  -0.1352  0.4122  1.0000  -2.2200   0.0000   0.0000   0.0000   0.3304
   7.800   1.4614   0.01202   0.00684  -0.1345  0.4056  1.0000  -2.2509   0.0000   0.0000   0.0000   0.3293
   7.900   1.4672   0.01224   0.00703  -0.1337  0.3994  1.0000  -2.2806   0.0000   0.0000   0.0000   0.3283
   8.000   1.4739   0.01243   0.00721  -0.1330  0.3929  1.0000  -2.3128   0.0000   0.0000   0.0000   0.3272
   8.100   1.4799   0.01266   0.00741  -0.1323  0.3866  1.0000  -2.3444   0.0000   0.0000   0.0000   0.3262
   8.200   1.4855   0.01290   0.00763  -0.1315  0.3799  1.0000  -2.3753   0.0000   0.0000   0.0000   0.3252
   8.300   1.4916   0.01313   0.00784  -0.1308  0.3733  1.0000  -2.4074   0.0000   0.0000   0.0000   0.3241
   8.400   1.4968   0.01340   0.00808  -0.1299  0.3670  1.0000  -2.4379   0.0000   0.0000   0.0000   0.3231
   8.500   1.5026   0.01365   0.00831  -0.1292  0.3603  1.0000  -2.4695   0.0000   0.0000   0.0000   0.3221
   8.600   1.5081   0.01392   0.00856  -0.1284  0.3541  1.0000  -2.5009   0.0000   0.0000   0.0000   0.3211
   8.700   1.5131   0.01423   0.00884  -0.1276  0.3479  1.0000  -2.5335   0.0000   0.0000   0.0000   0.3202
   8.800   1.5189   0.01449   0.00909  -0.1269  0.3415  1.0000  -2.5759   0.0000   0.0000   0.0000   0.3192
   8.900   1.5238   0.01481   0.00938  -0.1262  0.3355  1.0000  -2.6160   0.0000   0.0000   0.0000   0.3183
   9.000   1.5291   0.01511   0.00967  -0.1254  0.3290  1.0000  -2.6573   0.0000   0.0000   0.0000   0.3173
   9.100   1.5343   0.01543   0.00997  -0.1247  0.3229  1.0000  -2.6985   0.0000   0.0000   0.0000   0.3164
   9.300   1.5441   0.01611   0.01061  -0.1232  0.3104  1.0000  -2.7801   0.0000   0.0000   0.0000   0.3146
   9.400   1.5486   0.01649   0.01096  -0.1224  0.3044  1.0000  -2.8200   0.0000   0.0000   0.0000   0.3137
   9.500   1.5531   0.01686   0.01131  -0.1217  0.2980  1.0000  -2.8604   0.0000   0.0000   0.0000   0.3128
   9.600   1.5580   0.01723   0.01166  -0.1210  0.2919  1.0000  -2.9017   0.0000   0.0000   0.0000   0.3119
   9.700   1.5619   0.01765   0.01205  -0.1202  0.2860  1.0000  -2.9408   0.0000   0.0000   0.0000   0.3110
   9.800   1.5668   0.01802   0.01241  -0.1195  0.2798  1.0000  -2.9825   0.0000   0.0000   0.0000   0.3102
   9.900   1.5710   0.01844   0.01281  -0.1188  0.2740  1.0000  -3.0227   0.0000   0.0000   0.0000   0.3093
  10.000   1.5750   0.01887   0.01322  -0.1180  0.2680  1.0000  -3.0624   0.0000   0.0000   0.0000   0.3084
  10.100   1.5796   0.01928   0.01362  -0.1173  0.2622  1.0000  -3.1038   0.0000   0.0000   0.0000   0.3076
  10.200   1.5832   0.01975   0.01406  -0.1166  0.2566  1.0000  -3.1426   0.0000   0.0000   0.0000   0.3068
  10.300   1.5874   0.02019   0.01448  -0.1159  0.2505  1.0000  -3.1834   0.0000   0.0000   0.0000   0.3060
  10.400   1.5911   0.02066   0.01493  -0.1151  0.2446  1.0000  -3.2230   0.0000   0.0000   0.0000   0.3051
  10.600   1.5981   0.02164   0.01586  -0.1136  0.2325  1.0000  -3.3018   0.0000   0.0000   0.0000   0.3035
  10.700   1.6013   0.02216   0.01636  -0.1129  0.2267  1.0000  -3.3428   0.0000   0.0000   0.0000   0.3027
  10.800   1.6041   0.02271   0.01688  -0.1121  0.2207  1.0000  -3.3825   0.0000   0.0000   0.0000   0.3019
  10.900   1.6075   0.02322   0.01737  -0.1113  0.2145  1.0000  -3.4244   0.0000   0.0000   0.0000   0.3011
  11.000   1.6102   0.02377   0.01791  -0.1106  0.2086  1.0000  -3.4644   0.0000   0.0000   0.0000   0.3003
  11.200   1.6156   0.02492   0.01900  -0.1090  0.1965  1.0000  -3.5444   0.0000   0.0000   0.0000   0.2987
  11.300   1.6181   0.02551   0.01957  -0.1083  0.1908  1.0000  -3.5841   0.0000   0.0000   0.0000   0.2980
  11.500   1.6230   0.02670   0.02072  -0.1067  0.1797  1.0000  -3.6638   0.0000   0.0000   0.0000   0.2964
  11.600   1.6253   0.02731   0.02131  -0.1060  0.1747  1.0000  -3.7032   0.0000   0.0000   0.0000   0.2957
  11.700   1.6275   0.02793   0.02191  -0.1052  0.1696  1.0000  -3.7425   0.0000   0.0000   0.0000   0.2949
  11.800   1.6302   0.02852   0.02249  -0.1045  0.1647  1.0000  -3.7832   0.0000   0.0000   0.0000   0.2942
  11.900   1.6319   0.02919   0.02314  -0.1038  0.1601  1.0000  -3.8213   0.0000   0.0000   0.0000   0.2934
  12.000   1.6346   0.02979   0.02373  -0.1031  0.1552  1.0000  -3.8624   0.0000   0.0000   0.0000   0.2927
  12.100   1.6366   0.03045   0.02437  -0.1024  0.1508  1.0000  -3.9015   0.0000   0.0000   0.0000   0.2920
  12.200   1.6386   0.03111   0.02502  -0.1016  0.1463  1.0000  -3.9407   0.0000   0.0000   0.0000   0.2913
  12.300   1.6408   0.03176   0.02566  -0.1009  0.1420  1.0000  -3.9805   0.0000   0.0000   0.0000   0.2906
  12.400   1.6423   0.03246   0.02635  -0.1002  0.1378  1.0000  -4.0184   0.0000   0.0000   0.0000   0.2899
  12.500   1.6447   0.03311   0.02699  -0.0996  0.1336  1.0000  -4.0590   0.0000   0.0000   0.0000   0.2892
  12.700   1.6485   0.03451   0.02837  -0.0982  0.1257  1.0000  -4.1375   0.0000   0.0000   0.0000   0.2878
  12.800   1.6499   0.03526   0.02911  -0.0976  0.1220  1.0000  -4.1751   0.0000   0.0000   0.0000   0.2872
  12.900   1.6522   0.03595   0.02979  -0.0970  0.1181  1.0000  -4.2159   0.0000   0.0000   0.0000   0.2865
  13.000   1.6535   0.03672   0.03056  -0.0963  0.1147  1.0000  -4.2536   0.0000   0.0000   0.0000   0.2859
  13.100   1.6556   0.03744   0.03127  -0.0957  0.1110  1.0000  -4.2939   0.0000   0.0000   0.0000   0.2852
  13.200   1.6568   0.03824   0.03206  -0.0951  0.1078  1.0000  -4.3313   0.0000   0.0000   0.0000   0.2846
  13.300   1.6588   0.03898   0.03280  -0.0945  0.1043  1.0000  -4.3712   0.0000   0.0000   0.0000   0.2840
  13.400   1.6598   0.03980   0.03361  -0.0939  0.1013  1.0000  -4.4080   0.0000   0.0000   0.0000   0.2833
  13.500   1.6617   0.04056   0.03437  -0.0933  0.0981  1.0000  -4.4480   0.0000   0.0000   0.0000   0.2827
  13.600   1.6624   0.04142   0.03523  -0.0927  0.0953  1.0000  -4.4845   0.0000   0.0000   0.0000   0.2821
  13.700   1.6645   0.04218   0.03599  -0.0922  0.0923  1.0000  -4.5281   0.0000   0.0000   0.0000   0.2815
  13.800   1.6653   0.04307   0.03687  -0.0916  0.0895  1.0000  -4.5667   0.0000   0.0000   0.0000   0.2809
  13.900   1.6672   0.04385   0.03767  -0.0911  0.0868  1.0000  -4.6095   0.0000   0.0000   0.0000   0.2804
  14.000   1.6681   0.04474   0.03855  -0.0906  0.0841  1.0000  -4.6491   0.0000   0.0000   0.0000   0.2798
  14.100   1.6693   0.04560   0.03942  -0.0901  0.0817  1.0000  -4.6913   0.0000   0.0000   0.0000   0.2792
  14.200   1.6708   0.04646   0.04028  -0.0896  0.0792  1.0000  -4.7383   0.0000   0.0000   0.0000   0.2787
  14.300   1.6710   0.04743   0.04125  -0.0891  0.0770  1.0000  -4.7802   0.0000   0.0000   0.0000   0.2781
  14.400   1.6729   0.04824   0.04207  -0.0887  0.0747  1.0000  -4.8294   0.0000   0.0000   0.0000   0.2776
  14.500   1.6735   0.04919   0.04302  -0.0882  0.0725  1.0000  -4.8733   0.0000   0.0000   0.0000   0.2771
  14.600   1.6741   0.05014   0.04398  -0.0877  0.0706  1.0000  -4.9174   0.0000   0.0000   0.0000   0.2765
  14.700   1.6756   0.05101   0.04487  -0.0873  0.0686  1.0000  -4.9650   0.0000   0.0000   0.0000   0.2760
  14.800   1.6758   0.05202   0.04588  -0.0868  0.0668  1.0000  -5.0077   0.0000   0.0000   0.0000   0.2755
  14.900   1.6765   0.05299   0.04685  -0.0864  0.0651  1.0000  -5.0524   0.0000   0.0000   0.0000   0.2750
  15.000   1.6779   0.05390   0.04779  -0.0860  0.0634  1.0000  -5.0997   0.0000   0.0000   0.0000   0.2745
  15.100   1.6782   0.05492   0.04882  -0.0856  0.0618  1.0000  -5.1431   0.0000   0.0000   0.0000   0.2740
  15.200   1.6781   0.05601   0.04990  -0.0852  0.0604  1.0000  -5.1841   0.0000   0.0000   0.0000   0.2736
  15.300   1.6796   0.05692   0.05084  -0.0849  0.0589  1.0000  -5.2328   0.0000   0.0000   0.0000   0.2731
  15.400   1.6804   0.05792   0.05186  -0.0846  0.0575  1.0000  -5.2780   0.0000   0.0000   0.0000   0.2726
  15.500   1.6803   0.05902   0.05297  -0.0842  0.0563  1.0000  -5.3196   0.0000   0.0000   0.0000   0.2722
  15.600   1.6801   0.06014   0.05410  -0.0839  0.0551  1.0000  -5.3605   0.0000   0.0000   0.0000   0.2718
  15.700   1.6815   0.06109   0.05508  -0.0836  0.0539  1.0000  -5.4087   0.0000   0.0000   0.0000   0.2713
  15.800   1.6818   0.06215   0.05616  -0.0833  0.0527  1.0000  -5.4523   0.0000   0.0000   0.0000   0.2709
  15.900   1.6814   0.06331   0.05733  -0.0829  0.0516  1.0000  -5.4925   0.0000   0.0000   0.0000   0.2705
  16.100   1.6813   0.06555   0.05962  -0.0824  0.0496  1.0000  -5.5762   0.0000   0.0000   0.0000   0.2697
  16.200   1.6819   0.06662   0.06071  -0.0821  0.0485  1.0000  -5.6212   0.0000   0.0000   0.0000   0.2693
  16.300   1.6816   0.06779   0.06190  -0.0819  0.0475  1.0000  -5.6624   0.0000   0.0000   0.0000   0.2689
  16.400   1.6805   0.06907   0.06319  -0.0816  0.0466  1.0000  -5.6994   0.0000   0.0000   0.0000   0.2685
  16.500   1.6791   0.07040   0.06454  -0.0814  0.0458  1.0000  -5.7348   0.0000   0.0000   0.0000   0.2682
  16.600   1.6802   0.07144   0.06562  -0.0812  0.0448  1.0000  -5.7819   0.0000   0.0000   0.0000   0.2678
  16.700   1.6804   0.07258   0.06678  -0.0811  0.0438  1.0000  -5.8254   0.0000   0.0000   0.0000   0.2675
  16.800   1.6798   0.07383   0.06805  -0.0809  0.0430  1.0000  -5.8650   0.0000   0.0000   0.0000   0.2671
  16.900   1.6784   0.07519   0.06943  -0.0807  0.0422  1.0000  -5.9003   0.0000   0.0000   0.0000   0.2668
  17.100   1.6768   0.07778   0.07207  -0.0805  0.0406  1.0000  -5.9766   0.0000   0.0000   0.0000   0.2662
  17.200   1.6768   0.07896   0.07329  -0.0803  0.0397  1.0000  -6.0189   0.0000   0.0000   0.0000   0.2659
  17.300   1.6758   0.08027   0.07463  -0.0802  0.0389  1.0000  -6.0566   0.0000   0.0000   0.0000   0.2656
  17.400   1.6742   0.08167   0.07605  -0.0801  0.0382  1.0000  -6.0910   0.0000   0.0000   0.0000   0.2654
  17.500   1.6717   0.08321   0.07760  -0.0801  0.0376  1.0000  -6.1204   0.0000   0.0000   0.0000   0.2652
  17.600   1.6696   0.08470   0.07912  -0.0800  0.0369  1.0000  -6.1516   0.0000   0.0000   0.0000   0.2649
  17.700   1.6698   0.08590   0.08035  -0.0800  0.0362  1.0000  -6.1945   0.0000   0.0000   0.0000   0.2647
  17.800   1.6689   0.08724   0.08173  -0.0800  0.0355  1.0000  -6.2321   0.0000   0.0000   0.0000   0.2644
  17.900   1.6677   0.08864   0.08316  -0.0800  0.0348  1.0000  -6.2677   0.0000   0.0000   0.0000   0.2642
  18.000   1.6655   0.09018   0.08472  -0.0800  0.0342  1.0000  -6.2982   0.0000   0.0000   0.0000   0.2640
  18.100   1.6626   0.09181   0.08637  -0.0800  0.0337  1.0000  -6.3253   0.0000   0.0000   0.0000   0.2639
  18.200   1.6585   0.09363   0.08821  -0.0801  0.0332  1.0000  -6.3452   0.0000   0.0000   0.0000   0.2638
  18.300   1.6582   0.09493   0.08955  -0.0802  0.0326  1.0000  -6.3848   0.0000   0.0000   0.0000   0.2636
  18.400   1.6575   0.09630   0.09097  -0.0803  0.0320  1.0000  -6.4221   0.0000   0.0000   0.0000   0.2634
  18.500   1.6561   0.09776   0.09246  -0.0804  0.0314  1.0000  -6.4562   0.0000   0.0000   0.0000   0.2633
  18.600   1.6542   0.09930   0.09402  -0.0805  0.0309  1.0000  -6.4875   0.0000   0.0000   0.0000   0.2631
  18.700   1.6516   0.10094   0.09569  -0.0807  0.0304  1.0000  -6.5147   0.0000   0.0000   0.0000   0.2631
  18.800   1.6483   0.10266   0.09744  -0.0809  0.0300  1.0000  -6.5381   0.0000   0.0000   0.0000   0.2630
  18.900   1.6440   0.10455   0.09934  -0.0811  0.0296  1.0000  -6.5554   0.0000   0.0000   0.0000   0.2630
  19.000   1.6408   0.10629   0.10112  -0.0813  0.0291  1.0000  -6.5781   0.0000   0.0000   0.0000   0.2630
  19.100   1.6400   0.10770   0.10257  -0.0815  0.0287  1.0000  -6.6139   0.0000   0.0000   0.0000   0.2629
  19.200   1.6387   0.10916   0.10408  -0.0818  0.0282  1.0000  -6.6474   0.0000   0.0000   0.0000   0.2628
  19.300   1.6369   0.11073   0.10568  -0.0820  0.0278  1.0000  -6.6778   0.0000   0.0000   0.0000   0.2628
  19.400   1.6348   0.11234   0.10732  -0.0823  0.0274  1.0000  -6.7065   0.0000   0.0000   0.0000   0.2627
  19.500   1.6321   0.11406   0.10907  -0.0826  0.0270  1.0000  -6.7313   0.0000   0.0000   0.0000   0.2628
  19.600   1.6291   0.11582   0.11085  -0.0830  0.0267  1.0000  -6.7541   0.0000   0.0000   0.0000   0.2628
  19.700   1.6254   0.11770   0.11276  -0.0834  0.0263  1.0000  -6.7723   0.0000   0.0000   0.0000   0.2629
  19.800   1.6211   0.11966   0.11475  -0.0839  0.0260  1.0000  -6.7869   0.0000   0.0000   0.0000   0.2631
  20.000   1.6150   0.12328   0.11844  -0.0848  0.0254  1.0000  -6.8280   0.0000   0.0000   0.0000   0.2633


