xflr5 v6.57

 Calculated polar for: reaf

 1 1 Reynolds number fixed          Mach number fixed         

 xtrf =   1.000 (top)        1.000 (bottom)
 Mach =   0.000     Re =     0.700 e 6     Ncrit =   9.000

  alpha     CL        CD       CDp       Cm    Top Xtr Bot Xtr   Cpmin    Chinge    XCp    
 ------- -------- --------- --------- -------- ------- ------- -------- --------- ---------
 -10.000  -0.4525   0.02078   0.01577  -0.1373  0.8118  0.0233  -6.2611   0.0000   0.0000   0.0000  -0.0744
  -9.900  -0.4424   0.02051   0.01547  -0.1374  0.8108  0.0235  -6.1697   0.0000   0.0000   0.0000  -0.0817
  -9.800  -0.4322   0.02024   0.01516  -0.1375  0.8095  0.0236  -6.0791   0.0000   0.0000   0.0000  -0.0895
  -9.700  -0.4219   0.01995   0.01484  -0.1377  0.8082  0.0238  -5.9899   0.0000   0.0000   0.0000  -0.0977
  -9.600  -0.4117   0.01966   0.01451  -0.1378  0.8068  0.0240  -5.9024   0.0000   0.0000   0.0000  -0.1063
  -9.500  -0.4015   0.01936   0.01416  -0.1379  0.8055  0.0242  -5.8164   0.0000   0.0000   0.0000  -0.1153
  -9.400  -0.3912   0.01906   0.01381  -0.1380  0.8042  0.0244  -5.7311   0.0000   0.0000   0.0000  -0.1249
  -9.300  -0.3809   0.01876   0.01345  -0.1381  0.8031  0.0247  -5.6467   0.0000   0.0000   0.0000  -0.1349
  -9.200  -0.3705   0.01846   0.01309  -0.1382  0.8020  0.0249  -5.5634   0.0000   0.0000   0.0000  -0.1456
  -9.100  -0.3601   0.01817   0.01273  -0.1383  0.8010  0.0251  -5.4807   0.0000   0.0000   0.0000  -0.1569
  -9.000  -0.3496   0.01788   0.01240  -0.1384  0.7997  0.0253  -5.3979   0.0000   0.0000   0.0000  -0.1691
  -8.900  -0.3389   0.01763   0.01209  -0.1385  0.7984  0.0256  -5.3136   0.0000   0.0000   0.0000  -0.1822
  -8.800  -0.3281   0.01743   0.01183  -0.1386  0.7971  0.0258  -5.2277   0.0000   0.0000   0.0000  -0.1964
  -8.700  -0.3171   0.01728   0.01162  -0.1387  0.7958  0.0260  -5.1399   0.0000   0.0000   0.0000  -0.2117
  -8.600  -0.3078   0.01660   0.01090  -0.1388  0.7946  0.0263  -5.0736   0.0000   0.0000   0.0000  -0.2256
  -8.500  -0.2973   0.01631   0.01060  -0.1389  0.7935  0.0266  -4.9880   0.0000   0.0000   0.0000  -0.2422
  -8.400  -0.2865   0.01611   0.01039  -0.1390  0.7925  0.0269  -4.8989   0.0000   0.0000   0.0000  -0.2606
  -8.300  -0.2756   0.01595   0.01020  -0.1391  0.7915  0.0271  -4.8151   0.0000   0.0000   0.0000  -0.2807
  -8.200  -0.2647   0.01576   0.01000  -0.1391  0.7903  0.0274  -4.7341   0.0000   0.0000   0.0000  -0.3024
  -8.100  -0.2538   0.01557   0.00980  -0.1392  0.7889  0.0277  -4.6550   0.0000   0.0000   0.0000  -0.3261
  -8.000  -0.2428   0.01538   0.00958  -0.1393  0.7876  0.0280  -4.5770   0.0000   0.0000   0.0000  -0.3519
  -7.900  -0.2319   0.01519   0.00935  -0.1394  0.7864  0.0283  -4.5003   0.0000   0.0000   0.0000  -0.3802
  -7.800  -0.2209   0.01499   0.00912  -0.1395  0.7852  0.0286  -4.4245   0.0000   0.0000   0.0000  -0.4114
  -7.700  -0.2098   0.01481   0.00889  -0.1395  0.7841  0.0289  -4.3492   0.0000   0.0000   0.0000  -0.4460
  -7.600  -0.1987   0.01463   0.00867  -0.1396  0.7831  0.0292  -4.2743   0.0000   0.0000   0.0000  -0.4846
  -7.500  -0.1876   0.01448   0.00846  -0.1396  0.7822  0.0295  -4.1994   0.0000   0.0000   0.0000  -0.5281
  -7.400  -0.1763   0.01435   0.00828  -0.1397  0.7811  0.0297  -4.1239   0.0000   0.0000   0.0000  -0.5774
  -7.300  -0.1658   0.01399   0.00791  -0.1398  0.7798  0.0301  -4.0573   0.0000   0.0000   0.0000  -0.6298
  -7.200  -0.1551   0.01370   0.00762  -0.1399  0.7785  0.0304  -3.9854   0.0000   0.0000   0.0000  -0.6903
  -7.100  -0.1441   0.01352   0.00745  -0.1399  0.7772  0.0308  -3.9086   0.0000   0.0000   0.0000  -0.7621
  -7.000  -0.1329   0.01339   0.00731  -0.1400  0.7760  0.0312  -3.8306   0.0000   0.0000   0.0000  -0.8471
  -6.900  -0.1216   0.01327   0.00718  -0.1401  0.7749  0.0316  -3.7531   0.0000   0.0000   0.0000  -0.9484
  -6.800  -0.1103   0.01315   0.00704  -0.1402  0.7739  0.0321  -3.6766   0.0000   0.0000   0.0000  -1.0709
  -6.700  -0.0990   0.01304   0.00689  -0.1402  0.7729  0.0325  -3.6016   0.0000   0.0000   0.0000  -1.2216
  -6.600  -0.0876   0.01293   0.00674  -0.1403  0.7719  0.0330  -3.5278   0.0000   0.0000   0.0000  -1.4120
  -6.500  -0.0764   0.01281   0.00660  -0.1404  0.7706  0.0335  -3.4553   0.0000   0.0000   0.0000  -1.6573
  -6.400  -0.0650   0.01271   0.00647  -0.1404  0.7693  0.0338  -3.3894   0.0000   0.0000   0.0000  -1.9905
  -6.300  -0.0542   0.01243   0.00618  -0.1405  0.7680  0.0343  -3.3301   0.0000   0.0000   0.0000  -2.4374
  -6.200  -0.0431   0.01223   0.00599  -0.1406  0.7668  0.0348  -3.2650   0.0000   0.0000   0.0000  -3.1266
  -6.100  -0.0318   0.01210   0.00586  -0.1407  0.7656  0.0353  -3.1976   0.0000   0.0000   0.0000  -4.3230
  -6.000  -0.0205   0.01199   0.00574  -0.1407  0.7645  0.0358  -3.1305   0.0000   0.0000   0.0000  -6.8604
  -5.900  -0.0091   0.01189   0.00561  -0.1408  0.7635  0.0364  -3.0644   0.0000   0.0000   0.0000  -15.7958
  -5.800   0.0024   0.01179   0.00549  -0.1409  0.7626  0.0370  -2.9993   0.0000   0.0000   0.0000  61.7244
  -5.700   0.0138   0.01170   0.00537  -0.1410  0.7615  0.0376  -2.9352   0.0000   0.0000   0.0000  10.7977
  -5.600   0.0252   0.01162   0.00527  -0.1410  0.7602  0.0381  -2.8714   0.0000   0.0000   0.0000   6.0160
  -5.500   0.0363   0.01142   0.00507  -0.1411  0.7588  0.0388  -2.8111   0.0000   0.0000   0.0000   4.2521
  -5.400   0.0476   0.01127   0.00493  -0.1412  0.7576  0.0395  -2.7472   0.0000   0.0000   0.0000   3.3067
  -5.300   0.0590   0.01117   0.00484  -0.1413  0.7563  0.0403  -2.6820   0.0000   0.0000   0.0000   2.7151
  -5.200   0.0705   0.01109   0.00475  -0.1414  0.7552  0.0411  -2.6175   0.0000   0.0000   0.0000   2.3134
  -5.100   0.0820   0.01102   0.00465  -0.1414  0.7541  0.0420  -2.5541   0.0000   0.0000   0.0000   2.0233
  -5.000   0.0936   0.01096   0.00456  -0.1415  0.7531  0.0427  -2.4915   0.0000   0.0000   0.0000   1.8036
  -4.900   0.1049   0.01083   0.00440  -0.1416  0.7521  0.0436  -2.4315   0.0000   0.0000   0.0000   1.6351
  -4.800   0.1162   0.01069   0.00429  -0.1417  0.7508  0.0445  -2.3739   0.0000   0.0000   0.0000   1.5009
  -4.700   0.1276   0.01061   0.00421  -0.1417  0.7494  0.0454  -2.3171   0.0000   0.0000   0.0000   1.3890
  -4.600   0.1391   0.01053   0.00413  -0.1418  0.7481  0.0464  -2.2611   0.0000   0.0000   0.0000   1.2949
  -4.500   0.1506   0.01046   0.00405  -0.1419  0.7468  0.0474  -2.2059   0.0000   0.0000   0.0000   1.2148
  -4.400   0.1621   0.01037   0.00393  -0.1420  0.7456  0.0484  -2.1519   0.0000   0.0000   0.0000   1.1464
  -4.300   0.1735   0.01024   0.00382  -0.1421  0.7445  0.0497  -2.0972   0.0000   0.0000   0.0000   1.0874
  -4.200   0.1851   0.01018   0.00374  -0.1421  0.7434  0.0509  -2.0415   0.0000   0.0000   0.0000   1.0351
  -4.100   0.1967   0.01013   0.00367  -0.1422  0.7424  0.0523  -1.9865   0.0000   0.0000   0.0000   0.9887
  -4.000   0.2082   0.01006   0.00360  -0.1423  0.7411  0.0537  -1.9331   0.0000   0.0000   0.0000   0.9479
  -3.900   0.2195   0.00995   0.00351  -0.1424  0.7397  0.0553  -1.8797   0.0000   0.0000   0.0000   0.9118
  -3.800   0.2310   0.00988   0.00345  -0.1425  0.7383  0.0570  -1.8260   0.0000   0.0000   0.0000   0.8789
  -3.700   0.2426   0.00983   0.00338  -0.1425  0.7370  0.0587  -1.7731   0.0000   0.0000   0.0000   0.8488
  -3.600   0.2540   0.00973   0.00329  -0.1426  0.7357  0.0607  -1.7212   0.0000   0.0000   0.0000   0.8218
  -3.500   0.2656   0.00966   0.00322  -0.1427  0.7345  0.0629  -1.6685   0.0000   0.0000   0.0000   0.7969
  -3.400   0.2772   0.00961   0.00316  -0.1428  0.7334  0.0653  -1.6167   0.0000   0.0000   0.0000   0.7740
  -3.300   0.2888   0.00953   0.00309  -0.1429  0.7324  0.0681  -1.5650   0.0000   0.0000   0.0000   0.7530
  -3.100   0.3117   0.00939   0.00298  -0.1431  0.7295  0.0746  -1.4669   0.0000   0.0000   0.0000   0.7160
  -3.000   0.3232   0.00933   0.00293  -0.1431  0.7281  0.0784  -1.4208   0.0000   0.0000   0.0000   0.6993
  -2.900   0.3347   0.00925   0.00287  -0.1432  0.7267  0.0830  -1.3747   0.0000   0.0000   0.0000   0.6839
  -2.800   0.3462   0.00918   0.00282  -0.1433  0.7253  0.0884  -1.3289   0.0000   0.0000   0.0000   0.6694
  -2.700   0.3578   0.00911   0.00276  -0.1434  0.7241  0.0946  -1.2833   0.0000   0.0000   0.0000   0.6559
  -2.600   0.3693   0.00905   0.00271  -0.1435  0.7229  0.1018  -1.2379   0.0000   0.0000   0.0000   0.6432
  -2.500   0.3809   0.00899   0.00267  -0.1436  0.7218  0.1100  -1.1928   0.0000   0.0000   0.0000   0.6313
  -2.400   0.3923   0.00892   0.00264  -0.1437  0.7203  0.1190  -1.1485   0.0000   0.0000   0.0000   0.6202
  -2.300   0.4037   0.00885   0.00262  -0.1438  0.7187  0.1289  -1.1043   0.0000   0.0000   0.0000   0.6097
  -2.200   0.4152   0.00879   0.00258  -0.1439  0.7172  0.1394  -1.0604   0.0000   0.0000   0.0000   0.5997
  -2.100   0.4267   0.00872   0.00255  -0.1440  0.7158  0.1507  -1.0168   0.0000   0.0000   0.0000   0.5903
  -2.000   0.4382   0.00866   0.00252  -0.1441  0.7145  0.1626  -0.9737   0.0000   0.0000   0.0000   0.5813
  -1.900   0.4498   0.00861   0.00250  -0.1442  0.7132  0.1747  -0.9338   0.0000   0.0000   0.0000   0.5728
  -1.800   0.4614   0.00856   0.00247  -0.1443  0.7121  0.1868  -0.8942   0.0000   0.0000   0.0000   0.5647
  -1.700   0.4728   0.00851   0.00245  -0.1444  0.7106  0.1992  -0.8553   0.0000   0.0000   0.0000   0.5571
  -1.600   0.4842   0.00844   0.00244  -0.1445  0.7090  0.2126  -0.8256   0.0000   0.0000   0.0000   0.5499
  -1.500   0.4957   0.00839   0.00243  -0.1445  0.7073  0.2270  -0.8330   0.0000   0.0000   0.0000   0.5429
  -1.400   0.5071   0.00833   0.00241  -0.1446  0.7058  0.2422  -0.8406   0.0000   0.0000   0.0000   0.5363
  -1.300   0.5186   0.00827   0.00239  -0.1447  0.7043  0.2581  -0.8482   0.0000   0.0000   0.0000   0.5299
  -1.200   0.5301   0.00822   0.00237  -0.1448  0.7030  0.2744  -0.8558   0.0000   0.0000   0.0000   0.5238
  -1.100   0.5417   0.00817   0.00236  -0.1449  0.7017  0.2925  -0.8635   0.0000   0.0000   0.0000   0.5180
  -1.000   0.5531   0.00810   0.00236  -0.1450  0.7001  0.3120  -0.8710   0.0000   0.0000   0.0000   0.5124
  -0.900   0.5644   0.00804   0.00236  -0.1451  0.6984  0.3331  -0.8786   0.0000   0.0000   0.0000   0.5071
  -0.800   0.5758   0.00797   0.00236  -0.1452  0.6967  0.3550  -0.8866   0.0000   0.0000   0.0000   0.5020
  -0.700   0.5872   0.00791   0.00236  -0.1453  0.6951  0.3779  -0.8946   0.0000   0.0000   0.0000   0.4971
  -0.600   0.5987   0.00784   0.00235  -0.1454  0.6936  0.4024  -0.9026   0.0000   0.0000   0.0000   0.4923
  -0.500   0.6101   0.00778   0.00235  -0.1455  0.6922  0.4280  -0.9107   0.0000   0.0000   0.0000   0.4877
  -0.400   0.6216   0.00773   0.00235  -0.1456  0.6909  0.4540  -0.9187   0.0000   0.0000   0.0000   0.4833
  -0.300   0.6328   0.00766   0.00237  -0.1457  0.6890  0.4814  -0.9268   0.0000   0.0000   0.0000   0.4791
  -0.200   0.6441   0.00760   0.00238  -0.1457  0.6872  0.5090  -0.9349   0.0000   0.0000   0.0000   0.4750
  -0.100   0.6553   0.00754   0.00240  -0.1458  0.6854  0.5368  -0.9431   0.0000   0.0000   0.0000   0.4710
   0.000   0.6666   0.00748   0.00241  -0.1458  0.6838  0.5633  -0.9515   0.0000   0.0000   0.0000   0.4671
   0.100   0.6779   0.00744   0.00241  -0.1458  0.6822  0.5893  -0.9602   0.0000   0.0000   0.0000   0.4634
   0.200   0.6892   0.00740   0.00242  -0.1459  0.6808  0.6146  -0.9691   0.0000   0.0000   0.0000   0.4598
   0.300   0.7003   0.00735   0.00246  -0.1459  0.6790  0.6402  -0.9779   0.0000   0.0000   0.0000   0.4562
   0.400   0.7113   0.00731   0.00248  -0.1458  0.6770  0.6648  -0.9867   0.0000   0.0000   0.0000   0.4528
   0.500   0.7224   0.00727   0.00251  -0.1458  0.6750  0.6868  -0.9955   0.0000   0.0000   0.0000   0.4495
   0.600   0.7335   0.00725   0.00252  -0.1458  0.6732  0.7073  -1.0043   0.0000   0.0000   0.0000   0.4462
   0.700   0.7445   0.00723   0.00253  -0.1457  0.6716  0.7257  -1.0133   0.0000   0.0000   0.0000   0.4431
   0.800   0.7556   0.00722   0.00254  -0.1457  0.6700  0.7433  -1.0224   0.0000   0.0000   0.0000   0.4400
   0.900   0.7665   0.00719   0.00258  -0.1456  0.6679  0.7600  -1.0316   0.0000   0.0000   0.0000   0.4370
   1.000   0.7773   0.00717   0.00260  -0.1455  0.6659  0.7768  -1.0408   0.0000   0.0000   0.0000   0.4341
   1.100   0.7881   0.00715   0.00262  -0.1454  0.6639  0.7925  -1.0500   0.0000   0.0000   0.0000   0.4312
   1.200   0.7988   0.00713   0.00263  -0.1452  0.6620  0.8084  -1.0593   0.0000   0.0000   0.0000   0.4285
   1.300   0.8094   0.00712   0.00264  -0.1451  0.6603  0.8244  -1.0690   0.0000   0.0000   0.0000   0.4257
   1.400   0.8198   0.00710   0.00266  -0.1449  0.6584  0.8409  -1.0788   0.0000   0.0000   0.0000   0.4231
   1.500   0.8299   0.00707   0.00269  -0.1446  0.6560  0.8577  -1.0884   0.0000   0.0000   0.0000   0.4204
   1.600   0.8396   0.00704   0.00270  -0.1442  0.6538  0.8763  -1.0978   0.0000   0.0000   0.0000   0.4178
   1.700   0.8489   0.00701   0.00271  -0.1437  0.6518  0.8982  -1.1070   0.0000   0.0000   0.0000   0.4152
   1.800   0.8578   0.00697   0.00270  -0.1431  0.6499  0.9250  -1.1161   0.0000   0.0000   0.0000   0.4126
   1.900   0.8715   0.00692   0.00269  -0.1435  0.6478  0.9659  -1.1284   0.0000   0.0000   0.0000   0.4104
   2.000   0.8857   0.00692   0.00269  -0.1442  0.6453  1.0000  -1.1412   0.0000   0.0000   0.0000   0.4084
   2.100   0.8971   0.00694   0.00270  -0.1443  0.6429  1.0000  -1.1522   0.0000   0.0000   0.0000   0.4063
   2.200   0.9085   0.00698   0.00271  -0.1444  0.6407  1.0000  -1.1633   0.0000   0.0000   0.0000   0.4042
   2.300   0.9199   0.00702   0.00272  -0.1445  0.6387  1.0000  -1.1745   0.0000   0.0000   0.0000   0.4022
   2.400   0.9312   0.00705   0.00274  -0.1445  0.6362  1.0000  -1.1861   0.0000   0.0000   0.0000   0.4002
   2.500   0.9425   0.00707   0.00277  -0.1446  0.6336  1.0000  -1.1979   0.0000   0.0000   0.0000   0.3983
   2.600   0.9538   0.00710   0.00279  -0.1446  0.6312  1.0000  -1.2100   0.0000   0.0000   0.0000   0.3964
   2.700   0.9650   0.00715   0.00280  -0.1447  0.6289  1.0000  -1.2220   0.0000   0.0000   0.0000   0.3945
   2.800   0.9762   0.00718   0.00283  -0.1447  0.6265  1.0000  -1.2340   0.0000   0.0000   0.0000   0.3927
   2.900   0.9875   0.00721   0.00286  -0.1448  0.6236  1.0000  -1.2461   0.0000   0.0000   0.0000   0.3909
   3.000   0.9986   0.00725   0.00288  -0.1448  0.6209  1.0000  -1.2584   0.0000   0.0000   0.0000   0.3892
   3.100   1.0097   0.00729   0.00290  -0.1448  0.6184  1.0000  -1.2711   0.0000   0.0000   0.0000   0.3875
   3.200   1.0208   0.00733   0.00293  -0.1448  0.6159  1.0000  -1.2839   0.0000   0.0000   0.0000   0.3858
   3.300   1.0320   0.00736   0.00297  -0.1449  0.6128  1.0000  -1.2967   0.0000   0.0000   0.0000   0.3842
   3.400   1.0430   0.00740   0.00300  -0.1449  0.6099  1.0000  -1.3097   0.0000   0.0000   0.0000   0.3826
   3.500   1.0540   0.00746   0.00302  -0.1449  0.6073  1.0000  -1.3227   0.0000   0.0000   0.0000   0.3810
   3.600   1.0650   0.00750   0.00306  -0.1449  0.6044  1.0000  -1.3363   0.0000   0.0000   0.0000   0.3794
   3.700   1.0760   0.00754   0.00310  -0.1449  0.6011  1.0000  -1.3500   0.0000   0.0000   0.0000   0.3779
   3.800   1.0869   0.00758   0.00313  -0.1449  0.5980  1.0000  -1.3639   0.0000   0.0000   0.0000   0.3764
   3.900   1.0977   0.00765   0.00316  -0.1448  0.5952  1.0000  -1.3785   0.0000   0.0000   0.0000   0.3749
   4.000   1.1087   0.00768   0.00321  -0.1448  0.5917  1.0000  -1.3935   0.0000   0.0000   0.0000   0.3735
   4.100   1.1195   0.00773   0.00325  -0.1448  0.5883  1.0000  -1.4088   0.0000   0.0000   0.0000   0.3721
   4.200   1.1301   0.00780   0.00329  -0.1447  0.5851  1.0000  -1.4239   0.0000   0.0000   0.0000   0.3707
   4.300   1.1409   0.00784   0.00334  -0.1447  0.5814  1.0000  -1.4397   0.0000   0.0000   0.0000   0.3693
   4.400   1.1516   0.00790   0.00338  -0.1447  0.5776  1.0000  -1.4555   0.0000   0.0000   0.0000   0.3680
   4.600   1.1728   0.00802   0.00348  -0.1446  0.5702  1.0000  -1.4874   0.0000   0.0000   0.0000   0.3653
   4.700   1.1833   0.00808   0.00353  -0.1445  0.5662  1.0000  -1.5037   0.0000   0.0000   0.0000   0.3640
   4.800   1.1936   0.00816   0.00359  -0.1444  0.5626  1.0000  -1.5198   0.0000   0.0000   0.0000   0.3627
   4.900   1.2043   0.00821   0.00365  -0.1443  0.5584  1.0000  -1.5365   0.0000   0.0000   0.0000   0.3615
   5.000   1.2146   0.00829   0.00370  -0.1442  0.5543  1.0000  -1.5533   0.0000   0.0000   0.0000   0.3602
   5.100   1.2249   0.00836   0.00377  -0.1441  0.5504  1.0000  -1.5705   0.0000   0.0000   0.0000   0.3590
   5.200   1.2353   0.00843   0.00383  -0.1440  0.5459  1.0000  -1.5892   0.0000   0.0000   0.0000   0.3578
   5.300   1.2452   0.00852   0.00389  -0.1438  0.5418  1.0000  -1.6079   0.0000   0.0000   0.0000   0.3566
   5.400   1.2556   0.00859   0.00396  -0.1438  0.5373  1.0000  -1.6274   0.0000   0.0000   0.0000   0.3554
   5.500   1.2656   0.00868   0.00403  -0.1436  0.5327  1.0000  -1.6472   0.0000   0.0000   0.0000   0.3542
   5.600   1.2756   0.00877   0.00410  -0.1434  0.5281  1.0000  -1.6670   0.0000   0.0000   0.0000   0.3531
   5.700   1.2855   0.00885   0.00418  -0.1433  0.5230  1.0000  -1.6869   0.0000   0.0000   0.0000   0.3519
   5.800   1.2951   0.00896   0.00427  -0.1431  0.5181  1.0000  -1.7070   0.0000   0.0000   0.0000   0.3508
   5.900   1.3050   0.00905   0.00435  -0.1429  0.5126  1.0000  -1.7276   0.0000   0.0000   0.0000   0.3497
   6.000   1.3143   0.00917   0.00444  -0.1426  0.5074  1.0000  -1.7478   0.0000   0.0000   0.0000   0.3486
   6.100   1.3240   0.00926   0.00452  -0.1424  0.5016  1.0000  -1.7691   0.0000   0.0000   0.0000   0.3475
   6.200   1.3332   0.00938   0.00462  -0.1421  0.4962  1.0000  -1.7905   0.0000   0.0000   0.0000   0.3464
   6.300   1.3427   0.00949   0.00471  -0.1419  0.4904  1.0000  -1.8162   0.0000   0.0000   0.0000   0.3453
   6.400   1.3518   0.00962   0.00481  -0.1416  0.4851  1.0000  -1.8415   0.0000   0.0000   0.0000   0.3442
   6.500   1.3610   0.00973   0.00492  -0.1413  0.4793  1.0000  -1.8673   0.0000   0.0000   0.0000   0.3431
   6.600   1.3699   0.00987   0.00503  -0.1410  0.4738  1.0000  -1.8937   0.0000   0.0000   0.0000   0.3421
   6.700   1.3789   0.00999   0.00514  -0.1407  0.4678  1.0000  -1.9223   0.0000   0.0000   0.0000   0.3410
   6.800   1.3876   0.01013   0.00526  -0.1403  0.4622  1.0000  -1.9512   0.0000   0.0000   0.0000   0.3400
   6.900   1.3962   0.01027   0.00538  -0.1400  0.4561  1.0000  -1.9810   0.0000   0.0000   0.0000   0.3389
   7.000   1.4048   0.01041   0.00550  -0.1396  0.4500  1.0000  -2.0112   0.0000   0.0000   0.0000   0.3379
   7.200   1.4209   0.01074   0.00577  -0.1387  0.4366  1.0000  -2.0704   0.0000   0.0000   0.0000   0.3358
   7.300   1.4284   0.01092   0.00592  -0.1381  0.4296  1.0000  -2.0999   0.0000   0.0000   0.0000   0.3348
   7.400   1.4356   0.01111   0.00608  -0.1375  0.4224  1.0000  -2.1302   0.0000   0.0000   0.0000   0.3337
   7.500   1.4433   0.01128   0.00623  -0.1370  0.4152  1.0000  -2.1625   0.0000   0.0000   0.0000   0.3327
   7.600   1.4500   0.01147   0.00639  -0.1363  0.4086  1.0000  -2.1933   0.0000   0.0000   0.0000   0.3316
   7.700   1.4564   0.01165   0.00655  -0.1356  0.4019  1.0000  -2.2237   0.0000   0.0000   0.0000   0.3305
   7.800   1.4632   0.01184   0.00671  -0.1349  0.3957  1.0000  -2.2548   0.0000   0.0000   0.0000   0.3295
   7.900   1.4690   0.01206   0.00690  -0.1341  0.3895  1.0000  -2.2844   0.0000   0.0000   0.0000   0.3284
   8.000   1.4759   0.01225   0.00707  -0.1335  0.3827  1.0000  -2.3173   0.0000   0.0000   0.0000   0.3274
   8.100   1.4818   0.01248   0.00728  -0.1327  0.3762  1.0000  -2.3488   0.0000   0.0000   0.0000   0.3264
   8.200   1.4875   0.01272   0.00749  -0.1319  0.3696  1.0000  -2.3801   0.0000   0.0000   0.0000   0.3253
   8.300   1.4937   0.01294   0.00770  -0.1312  0.3630  1.0000  -2.4124   0.0000   0.0000   0.0000   0.3243
   8.400   1.4991   0.01321   0.00794  -0.1304  0.3567  1.0000  -2.4431   0.0000   0.0000   0.0000   0.3233
   8.500   1.5050   0.01345   0.00816  -0.1297  0.3501  1.0000  -2.4752   0.0000   0.0000   0.0000   0.3223
   8.600   1.5107   0.01372   0.00840  -0.1289  0.3440  1.0000  -2.5067   0.0000   0.0000   0.0000   0.3213
   8.700   1.5158   0.01401   0.00867  -0.1281  0.3378  1.0000  -2.5417   0.0000   0.0000   0.0000   0.3204
   8.800   1.5217   0.01428   0.00892  -0.1275  0.3315  1.0000  -2.5842   0.0000   0.0000   0.0000   0.3194
   8.900   1.5267   0.01459   0.00921  -0.1267  0.3254  1.0000  -2.6245   0.0000   0.0000   0.0000   0.3185
   9.000   1.5321   0.01489   0.00949  -0.1260  0.3190  1.0000  -2.6662   0.0000   0.0000   0.0000   0.3175
   9.100   1.5373   0.01521   0.00979  -0.1253  0.3129  1.0000  -2.7076   0.0000   0.0000   0.0000   0.3166
   9.300   1.5472   0.01588   0.01042  -0.1238  0.3003  1.0000  -2.7896   0.0000   0.0000   0.0000   0.3148
   9.400   1.5518   0.01625   0.01076  -0.1230  0.2943  1.0000  -2.8299   0.0000   0.0000   0.0000   0.3139
   9.500   1.5565   0.01662   0.01110  -0.1223  0.2880  1.0000  -2.8706   0.0000   0.0000   0.0000   0.3130
   9.600   1.5615   0.01698   0.01144  -0.1216  0.2820  1.0000  -2.9124   0.0000   0.0000   0.0000   0.3121
   9.700   1.5656   0.01739   0.01183  -0.1208  0.2762  1.0000  -2.9519   0.0000   0.0000   0.0000   0.3112
   9.800   1.5705   0.01776   0.01218  -0.1201  0.2701  1.0000  -2.9939   0.0000   0.0000   0.0000   0.3104
   9.900   1.5749   0.01816   0.01257  -0.1194  0.2644  1.0000  -3.0345   0.0000   0.0000   0.0000   0.3095
  10.000   1.5790   0.01859   0.01297  -0.1187  0.2585  1.0000  -3.0746   0.0000   0.0000   0.0000   0.3087
  10.100   1.5836   0.01900   0.01336  -0.1180  0.2526  1.0000  -3.1161   0.0000   0.0000   0.0000   0.3078
  10.200   1.5872   0.01946   0.01380  -0.1172  0.2468  1.0000  -3.1552   0.0000   0.0000   0.0000   0.3070
  10.300   1.5912   0.01991   0.01423  -0.1165  0.2405  1.0000  -3.1955   0.0000   0.0000   0.0000   0.3062
  10.400   1.5951   0.02037   0.01466  -0.1157  0.2345  1.0000  -3.2356   0.0000   0.0000   0.0000   0.3053
  10.500   1.5982   0.02088   0.01515  -0.1149  0.2287  1.0000  -3.2737   0.0000   0.0000   0.0000   0.3045
  10.600   1.6020   0.02135   0.01560  -0.1142  0.2224  1.0000  -3.3152   0.0000   0.0000   0.0000   0.3037
  10.700   1.6054   0.02185   0.01608  -0.1135  0.2164  1.0000  -3.3569   0.0000   0.0000   0.0000   0.3029
  10.800   1.6081   0.02241   0.01660  -0.1127  0.2105  1.0000  -3.3966   0.0000   0.0000   0.0000   0.3021
  10.900   1.6113   0.02293   0.01710  -0.1119  0.2042  1.0000  -3.4381   0.0000   0.0000   0.0000   0.3013
  11.000   1.6143   0.02346   0.01762  -0.1112  0.1983  1.0000  -3.4790   0.0000   0.0000   0.0000   0.3005
  11.100   1.6168   0.02404   0.01817  -0.1104  0.1926  1.0000  -3.5184   0.0000   0.0000   0.0000   0.2997
  11.200   1.6196   0.02460   0.01871  -0.1096  0.1867  1.0000  -3.5590   0.0000   0.0000   0.0000   0.2989
  11.300   1.6226   0.02516   0.01924  -0.1089  0.1812  1.0000  -3.6001   0.0000   0.0000   0.0000   0.2982
  11.400   1.6248   0.02577   0.01982  -0.1081  0.1760  1.0000  -3.6394   0.0000   0.0000   0.0000   0.2974
  11.500   1.6278   0.02633   0.02037  -0.1074  0.1707  1.0000  -3.6809   0.0000   0.0000   0.0000   0.2966
  11.600   1.6304   0.02692   0.02094  -0.1066  0.1659  1.0000  -3.7212   0.0000   0.0000   0.0000   0.2959
  11.700   1.6325   0.02754   0.02154  -0.1059  0.1610  1.0000  -3.7604   0.0000   0.0000   0.0000   0.2951
  11.800   1.6354   0.02812   0.02211  -0.1052  0.1563  1.0000  -3.8020   0.0000   0.0000   0.0000   0.2944
  11.900   1.6374   0.02876   0.02273  -0.1044  0.1518  1.0000  -3.8409   0.0000   0.0000   0.0000   0.2936
  12.000   1.6400   0.02936   0.02332  -0.1037  0.1472  1.0000  -3.8821   0.0000   0.0000   0.0000   0.2929
  12.100   1.6422   0.03000   0.02395  -0.1030  0.1430  1.0000  -3.9218   0.0000   0.0000   0.0000   0.2922
  12.200   1.6444   0.03064   0.02458  -0.1023  0.1386  1.0000  -3.9618   0.0000   0.0000   0.0000   0.2915
  12.300   1.6467   0.03128   0.02521  -0.1016  0.1345  1.0000  -4.0022   0.0000   0.0000   0.0000   0.2908
  12.400   1.6486   0.03196   0.02587  -0.1009  0.1305  1.0000  -4.0411   0.0000   0.0000   0.0000   0.2901
  12.500   1.6510   0.03260   0.02651  -0.1003  0.1266  1.0000  -4.0820   0.0000   0.0000   0.0000   0.2894
  12.600   1.6524   0.03332   0.02721  -0.0995  0.1228  1.0000  -4.1200   0.0000   0.0000   0.0000   0.2887
  12.700   1.6550   0.03396   0.02786  -0.0989  0.1190  1.0000  -4.1616   0.0000   0.0000   0.0000   0.2880
  12.900   1.6588   0.03538   0.02926  -0.0976  0.1118  1.0000  -4.2409   0.0000   0.0000   0.0000   0.2867
  13.000   1.6600   0.03616   0.03002  -0.0970  0.1085  1.0000  -4.2781   0.0000   0.0000   0.0000   0.2860
  13.100   1.6624   0.03685   0.03071  -0.0964  0.1050  1.0000  -4.3197   0.0000   0.0000   0.0000   0.2854
  13.300   1.6659   0.03835   0.03221  -0.0952  0.0987  1.0000  -4.3983   0.0000   0.0000   0.0000   0.2841
  13.400   1.6669   0.03917   0.03301  -0.0945  0.0958  1.0000  -4.4355   0.0000   0.0000   0.0000   0.2835
  13.500   1.6691   0.03989   0.03374  -0.0940  0.0928  1.0000  -4.4765   0.0000   0.0000   0.0000   0.2829
  13.600   1.6702   0.04072   0.03457  -0.0934  0.0900  1.0000  -4.5154   0.0000   0.0000   0.0000   0.2823
  13.700   1.6721   0.04149   0.03534  -0.0929  0.0873  1.0000  -4.5582   0.0000   0.0000   0.0000   0.2817
  13.800   1.6734   0.04232   0.03616  -0.0923  0.0845  1.0000  -4.5992   0.0000   0.0000   0.0000   0.2811
  13.900   1.6746   0.04316   0.03701  -0.0918  0.0820  1.0000  -4.6398   0.0000   0.0000   0.0000   0.2805
  14.000   1.6764   0.04396   0.03781  -0.0913  0.0794  1.0000  -4.6829   0.0000   0.0000   0.0000   0.2799
  14.200   1.6790   0.04567   0.03952  -0.0903  0.0748  1.0000  -4.7761   0.0000   0.0000   0.0000   0.2788
  14.300   1.6800   0.04657   0.04042  -0.0898  0.0725  1.0000  -4.8216   0.0000   0.0000   0.0000   0.2782
  14.400   1.6809   0.04747   0.04133  -0.0893  0.0706  1.0000  -4.8671   0.0000   0.0000   0.0000   0.2777
  14.500   1.6826   0.04830   0.04218  -0.0888  0.0685  1.0000  -4.9158   0.0000   0.0000   0.0000   0.2772
  14.600   1.6831   0.04926   0.04314  -0.0883  0.0667  1.0000  -4.9594   0.0000   0.0000   0.0000   0.2766
  14.700   1.6841   0.05017   0.04405  -0.0879  0.0650  1.0000  -5.0057   0.0000   0.0000   0.0000   0.2761
  14.800   1.6857   0.05104   0.04494  -0.0875  0.0632  1.0000  -5.0542   0.0000   0.0000   0.0000   0.2756
  14.900   1.6861   0.05202   0.04593  -0.0870  0.0616  1.0000  -5.0980   0.0000   0.0000   0.0000   0.2751
  15.000   1.6866   0.05301   0.04692  -0.0866  0.0602  1.0000  -5.1422   0.0000   0.0000   0.0000   0.2746
  15.100   1.6883   0.05389   0.04782  -0.0862  0.0587  1.0000  -5.1916   0.0000   0.0000   0.0000   0.2741
  15.200   1.6891   0.05486   0.04881  -0.0859  0.0573  1.0000  -5.2372   0.0000   0.0000   0.0000   0.2736
  15.300   1.6892   0.05592   0.04987  -0.0855  0.0560  1.0000  -5.2798   0.0000   0.0000   0.0000   0.2731
  15.400   1.6900   0.05691   0.05088  -0.0851  0.0548  1.0000  -5.3255   0.0000   0.0000   0.0000   0.2727
  15.500   1.6914   0.05785   0.05184  -0.0848  0.0535  1.0000  -5.3738   0.0000   0.0000   0.0000   0.2722
  15.600   1.6919   0.05887   0.05288  -0.0844  0.0523  1.0000  -5.4188   0.0000   0.0000   0.0000   0.2718
  15.700   1.6916   0.06001   0.05403  -0.0841  0.0512  1.0000  -5.4595   0.0000   0.0000   0.0000   0.2713
  15.800   1.6918   0.06108   0.05512  -0.0838  0.0502  1.0000  -5.5027   0.0000   0.0000   0.0000   0.2709
  15.900   1.6930   0.06204   0.05611  -0.0835  0.0491  1.0000  -5.5509   0.0000   0.0000   0.0000   0.2705
  16.000   1.6935   0.06309   0.05718  -0.0832  0.0480  1.0000  -5.5955   0.0000   0.0000   0.0000   0.2700
  16.100   1.6933   0.06423   0.05833  -0.0829  0.0470  1.0000  -5.6372   0.0000   0.0000   0.0000   0.2696
  16.200   1.6921   0.06548   0.05960  -0.0826  0.0462  1.0000  -5.6745   0.0000   0.0000   0.0000   0.2692
  16.300   1.6928   0.06654   0.06068  -0.0824  0.0452  1.0000  -5.7199   0.0000   0.0000   0.0000   0.2688
  16.400   1.6936   0.06758   0.06175  -0.0821  0.0443  1.0000  -5.7666   0.0000   0.0000   0.0000   0.2684
  16.500   1.6936   0.06873   0.06292  -0.0819  0.0433  1.0000  -5.8094   0.0000   0.0000   0.0000   0.2681
  16.600   1.6930   0.06995   0.06416  -0.0817  0.0425  1.0000  -5.8493   0.0000   0.0000   0.0000   0.2677
  16.700   1.6914   0.07130   0.06553  -0.0815  0.0417  1.0000  -5.8843   0.0000   0.0000   0.0000   0.2674
  16.800   1.6916   0.07244   0.06670  -0.0813  0.0408  1.0000  -5.9280   0.0000   0.0000   0.0000   0.2670
  16.900   1.6922   0.07355   0.06784  -0.0811  0.0400  1.0000  -5.9733   0.0000   0.0000   0.0000   0.2667
  17.000   1.6918   0.07477   0.06908  -0.0810  0.0391  1.0000  -6.0145   0.0000   0.0000   0.0000   0.2664
  17.100   1.6909   0.07607   0.07039  -0.0808  0.0383  1.0000  -6.0530   0.0000   0.0000   0.0000   0.2660
  17.200   1.6890   0.07750   0.07184  -0.0807  0.0376  1.0000  -6.0863   0.0000   0.0000   0.0000   0.2658
  17.300   1.6874   0.07889   0.07325  -0.0805  0.0370  1.0000  -6.1208   0.0000   0.0000   0.0000   0.2655
  17.400   1.6878   0.08003   0.07443  -0.0804  0.0362  1.0000  -6.1653   0.0000   0.0000   0.0000   0.2652
  17.500   1.6873   0.08128   0.07572  -0.0804  0.0355  1.0000  -6.2057   0.0000   0.0000   0.0000   0.2649
  17.600   1.6862   0.08262   0.07708  -0.0803  0.0348  1.0000  -6.2430   0.0000   0.0000   0.0000   0.2646
  17.700   1.6844   0.08407   0.07855  -0.0802  0.0342  1.0000  -6.2762   0.0000   0.0000   0.0000   0.2644
  17.800   1.6819   0.08560   0.08010  -0.0802  0.0336  1.0000  -6.3061   0.0000   0.0000   0.0000   0.2642
  17.900   1.6788   0.08724   0.08176  -0.0802  0.0330  1.0000  -6.3326   0.0000   0.0000   0.0000   0.2640
  18.000   1.6792   0.08843   0.08299  -0.0801  0.0324  1.0000  -6.3765   0.0000   0.0000   0.0000   0.2637
  18.100   1.6785   0.08976   0.08436  -0.0801  0.0318  1.0000  -6.4151   0.0000   0.0000   0.0000   0.2635
  18.200   1.6771   0.09119   0.08581  -0.0802  0.0312  1.0000  -6.4505   0.0000   0.0000   0.0000   0.2633
  18.300   1.6752   0.09269   0.08734  -0.0802  0.0306  1.0000  -6.4830   0.0000   0.0000   0.0000   0.2631
  18.400   1.6726   0.09429   0.08897  -0.0803  0.0301  1.0000  -6.5116   0.0000   0.0000   0.0000   0.2630
  18.500   1.6693   0.09601   0.09070  -0.0804  0.0297  1.0000  -6.5359   0.0000   0.0000   0.0000   0.2629
  18.600   1.6658   0.09777   0.09249  -0.0806  0.0292  1.0000  -6.5585   0.0000   0.0000   0.0000   0.2628
  18.700   1.6656   0.09906   0.09383  -0.0807  0.0287  1.0000  -6.5991   0.0000   0.0000   0.0000   0.2626
  18.800   1.6645   0.10049   0.09529  -0.0808  0.0282  1.0000  -6.6350   0.0000   0.0000   0.0000   0.2625
  18.900   1.6630   0.10196   0.09680  -0.0809  0.0278  1.0000  -6.6685   0.0000   0.0000   0.0000   0.2624
  19.000   1.6607   0.10354   0.09841  -0.0811  0.0273  1.0000  -6.6978   0.0000   0.0000   0.0000   0.2623
  19.100   1.6582   0.10517   0.10007  -0.0813  0.0269  1.0000  -6.7254   0.0000   0.0000   0.0000   0.2622
  19.200   1.6550   0.10691   0.10183  -0.0816  0.0266  1.0000  -6.7492   0.0000   0.0000   0.0000   0.2622
  19.300   1.6513   0.10872   0.10366  -0.0819  0.0262  1.0000  -6.7697   0.0000   0.0000   0.0000   0.2622
  19.400   1.6467   0.11069   0.10567  -0.0822  0.0259  1.0000  -6.7841   0.0000   0.0000   0.0000   0.2623
  19.500   1.6441   0.11237   0.10738  -0.0825  0.0256  1.0000  -6.8096   0.0000   0.0000   0.0000   0.2623
  19.600   1.6428   0.11386   0.10892  -0.0828  0.0252  1.0000  -6.8429   0.0000   0.0000   0.0000   0.2622
  19.700   1.6413   0.11540   0.11049  -0.0831  0.0249  1.0000  -6.8743   0.0000   0.0000   0.0000   0.2622
  19.800   1.6395   0.11698   0.11211  -0.0834  0.0245  1.0000  -6.9041   0.0000   0.0000   0.0000   0.2622
  19.900   1.6373   0.11863   0.11380  -0.0838  0.0242  1.0000  -6.9315   0.0000   0.0000   0.0000   0.2622
  20.000   1.6349   0.12031   0.11551  -0.0842  0.0239  1.0000  -6.9600   0.0000   0.0000   0.0000   0.2623


