xflr5 v6.57

 Calculated polar for: reaf

 1 1 Reynolds number fixed          Mach number fixed         

 xtrf =   1.000 (top)        1.000 (bottom)
 Mach =   0.000     Re =     0.660 e 6     Ncrit =   9.000

  alpha     CL        CD       CDp       Cm    Top Xtr Bot Xtr   Cpmin    Chinge    XCp    
 ------- -------- --------- --------- -------- ------- ------- -------- --------- ---------
 -10.000  -0.4479   0.02212   0.01724  -0.1372  0.8149  0.0237  -6.1711   0.0000   0.0000   0.0000  -0.0775
  -9.900  -0.4381   0.02177   0.01684  -0.1374  0.8136  0.0239  -6.0867   0.0000   0.0000   0.0000  -0.0848
  -9.800  -0.4283   0.02141   0.01642  -0.1375  0.8124  0.0241  -6.0038   0.0000   0.0000   0.0000  -0.0925
  -9.700  -0.4184   0.02106   0.01601  -0.1377  0.8113  0.0243  -5.9208   0.0000   0.0000   0.0000  -0.1006
  -9.300  -0.2039   0.07288   0.07004  -0.0883  0.8114  0.0270  -2.7534   0.0000   0.0000   0.0000  -0.2178
  -9.200  -0.1989   0.07224   0.06939  -0.0888  0.8102  0.0273  -2.7070   0.0000   0.0000   0.0000  -0.2314
  -9.000  -0.3473   0.01863   0.01309  -0.1385  0.8026  0.0258  -5.3628   0.0000   0.0000   0.0000  -0.1721
  -8.900  -0.3365   0.01844   0.01282  -0.1386  0.8016  0.0260  -5.2775   0.0000   0.0000   0.0000  -0.1855
  -8.800  -0.3275   0.01770   0.01203  -0.1387  0.8005  0.0263  -5.2137   0.0000   0.0000   0.0000  -0.1975
  -8.700  -0.3172   0.01738   0.01171  -0.1389  0.7991  0.0266  -5.1282   0.0000   0.0000   0.0000  -0.2120
  -8.600  -0.3066   0.01716   0.01150  -0.1390  0.7978  0.0268  -5.0386   0.0000   0.0000   0.0000  -0.2280
  -8.500  -0.2958   0.01698   0.01130  -0.1390  0.7965  0.0271  -4.9487   0.0000   0.0000   0.0000  -0.2453
  -8.400  -0.2849   0.01680   0.01110  -0.1391  0.7952  0.0274  -4.8601   0.0000   0.0000   0.0000  -0.2640
  -8.300  -0.2741   0.01661   0.01088  -0.1392  0.7941  0.0277  -4.7750   0.0000   0.0000   0.0000  -0.2843
  -8.200  -0.2632   0.01640   0.01063  -0.1393  0.7930  0.0279  -4.6976   0.0000   0.0000   0.0000  -0.3061
  -8.100  -0.2523   0.01618   0.01036  -0.1394  0.7920  0.0282  -4.6223   0.0000   0.0000   0.0000  -0.3299
  -8.000  -0.2415   0.01596   0.01010  -0.1394  0.7910  0.0285  -4.5477   0.0000   0.0000   0.0000  -0.3558
  -7.900  -0.2306   0.01574   0.00985  -0.1395  0.7897  0.0288  -4.4742   0.0000   0.0000   0.0000  -0.3843
  -7.800  -0.2196   0.01553   0.00959  -0.1396  0.7883  0.0291  -4.4009   0.0000   0.0000   0.0000  -0.4157
  -7.700  -0.2086   0.01534   0.00935  -0.1396  0.7871  0.0294  -4.3275   0.0000   0.0000   0.0000  -0.4507
  -7.600  -0.1975   0.01517   0.00914  -0.1397  0.7859  0.0297  -4.2533   0.0000   0.0000   0.0000  -0.4900
  -7.500  -0.1868   0.01486   0.00878  -0.1398  0.7847  0.0300  -4.1855   0.0000   0.0000   0.0000  -0.5320
  -7.400  -0.1763   0.01449   0.00840  -0.1398  0.7837  0.0303  -4.1166   0.0000   0.0000   0.0000  -0.5782
  -7.300  -0.1654   0.01428   0.00818  -0.1399  0.7827  0.0307  -4.0405   0.0000   0.0000   0.0000  -0.6328
  -7.200  -0.1543   0.01413   0.00801  -0.1400  0.7818  0.0310  -3.9632   0.0000   0.0000   0.0000  -0.6961
  -7.100  -0.1432   0.01398   0.00786  -0.1401  0.7805  0.0314  -3.8862   0.0000   0.0000   0.0000  -0.7693
  -7.000  -0.1320   0.01385   0.00772  -0.1401  0.7791  0.0318  -3.8097   0.0000   0.0000   0.0000  -0.8552
  -6.900  -0.1208   0.01371   0.00757  -0.1402  0.7778  0.0322  -3.7343   0.0000   0.0000   0.0000  -0.9575
  -6.800  -0.1096   0.01358   0.00741  -0.1403  0.7766  0.0327  -3.6602   0.0000   0.0000   0.0000  -1.0812
  -6.700  -0.0983   0.01345   0.00725  -0.1404  0.7755  0.0332  -3.5869   0.0000   0.0000   0.0000  -1.2338
  -6.600  -0.0869   0.01334   0.00709  -0.1404  0.7744  0.0336  -3.5142   0.0000   0.0000   0.0000  -1.4274
  -6.500  -0.0756   0.01321   0.00692  -0.1405  0.7733  0.0340  -3.4428   0.0000   0.0000   0.0000  -1.6785
  -6.400  -0.0649   0.01288   0.00658  -0.1405  0.7724  0.0345  -3.3829   0.0000   0.0000   0.0000  -1.9951
  -6.300  -0.0538   0.01272   0.00642  -0.1406  0.7712  0.0350  -3.3165   0.0000   0.0000   0.0000  -2.4578
  -6.200  -0.0426   0.01258   0.00629  -0.1407  0.7699  0.0355  -3.2494   0.0000   0.0000   0.0000  -3.1684
  -6.100  -0.0313   0.01246   0.00617  -0.1408  0.7686  0.0360  -3.1830   0.0000   0.0000   0.0000  -4.3970
  -6.000  -0.0200   0.01234   0.00604  -0.1408  0.7673  0.0365  -3.1177   0.0000   0.0000   0.0000  -7.0214
  -5.900  -0.0087   0.01223   0.00590  -0.1409  0.7661  0.0371  -3.0534   0.0000   0.0000   0.0000  -16.5500
  -5.800   0.0028   0.01213   0.00576  -0.1410  0.7650  0.0377  -2.9897   0.0000   0.0000   0.0000  53.0777
  -5.700   0.0143   0.01204   0.00564  -0.1410  0.7640  0.0382  -2.9259   0.0000   0.0000   0.0000  10.4559
  -5.600   0.0253   0.01182   0.00540  -0.1411  0.7630  0.0389  -2.8663   0.0000   0.0000   0.0000   5.9968
  -5.500   0.0366   0.01168   0.00526  -0.1412  0.7621  0.0396  -2.8019   0.0000   0.0000   0.0000   4.2235
  -5.400   0.0479   0.01158   0.00517  -0.1413  0.7607  0.0403  -2.7370   0.0000   0.0000   0.0000   3.2873
  -5.300   0.0593   0.01149   0.00509  -0.1414  0.7594  0.0411  -2.6729   0.0000   0.0000   0.0000   2.7044
  -5.200   0.0707   0.01140   0.00499  -0.1414  0.7580  0.0419  -2.6097   0.0000   0.0000   0.0000   2.3073
  -5.100   0.0822   0.01133   0.00489  -0.1415  0.7568  0.0427  -2.5474   0.0000   0.0000   0.0000   2.0190
  -5.000   0.0935   0.01118   0.00473  -0.1416  0.7556  0.0436  -2.4876   0.0000   0.0000   0.0000   1.8052
  -4.900   0.1048   0.01104   0.00459  -0.1417  0.7545  0.0445  -2.4260   0.0000   0.0000   0.0000   1.6371
  -4.800   0.1163   0.01096   0.00450  -0.1417  0.7534  0.0453  -2.3666   0.0000   0.0000   0.0000   1.5001
  -4.700   0.1279   0.01088   0.00440  -0.1418  0.7525  0.0463  -2.3104   0.0000   0.0000   0.0000   1.3871
  -4.600   0.1393   0.01081   0.00432  -0.1419  0.7512  0.0473  -2.2555   0.0000   0.0000   0.0000   1.2935
  -4.500   0.1508   0.01073   0.00423  -0.1419  0.7498  0.0482  -2.2014   0.0000   0.0000   0.0000   1.2143
  -4.400   0.1620   0.01057   0.00409  -0.1420  0.7485  0.0494  -2.1478   0.0000   0.0000   0.0000   1.1474
  -4.300   0.1735   0.01049   0.00401  -0.1421  0.7472  0.0506  -2.0923   0.0000   0.0000   0.0000   1.0880
  -4.200   0.1850   0.01043   0.00394  -0.1422  0.7459  0.0519  -2.0373   0.0000   0.0000   0.0000   1.0357
  -4.100   0.1966   0.01038   0.00386  -0.1423  0.7448  0.0532  -1.9831   0.0000   0.0000   0.0000   0.9893
  -4.000   0.2080   0.01025   0.00374  -0.1424  0.7437  0.0548  -1.9300   0.0000   0.0000   0.0000   0.9487
  -3.900   0.2196   0.01018   0.00367  -0.1425  0.7427  0.0564  -1.8757   0.0000   0.0000   0.0000   0.9119
  -3.800   0.2311   0.01013   0.00360  -0.1425  0.7415  0.0581  -1.8226   0.0000   0.0000   0.0000   0.8788
  -3.700   0.2425   0.01004   0.00352  -0.1426  0.7400  0.0599  -1.7710   0.0000   0.0000   0.0000   0.8492
  -3.600   0.2539   0.00995   0.00345  -0.1427  0.7386  0.0619  -1.7185   0.0000   0.0000   0.0000   0.8223
  -3.500   0.2655   0.00989   0.00339  -0.1428  0.7372  0.0641  -1.6664   0.0000   0.0000   0.0000   0.7973
  -3.400   0.2770   0.00980   0.00331  -0.1428  0.7359  0.0666  -1.6151   0.0000   0.0000   0.0000   0.7746
  -3.300   0.2885   0.00974   0.00324  -0.1429  0.7347  0.0694  -1.5634   0.0000   0.0000   0.0000   0.7536
  -3.200   0.3001   0.00966   0.00317  -0.1430  0.7336  0.0725  -1.5127   0.0000   0.0000   0.0000   0.7342
  -3.100   0.3117   0.00961   0.00311  -0.1431  0.7325  0.0761  -1.4652   0.0000   0.0000   0.0000   0.7161
  -3.000   0.3232   0.00953   0.00305  -0.1432  0.7312  0.0801  -1.4192   0.0000   0.0000   0.0000   0.6996
  -2.900   0.3346   0.00946   0.00300  -0.1433  0.7297  0.0848  -1.3736   0.0000   0.0000   0.0000   0.6842
  -2.800   0.3460   0.00939   0.00296  -0.1433  0.7282  0.0903  -1.3281   0.0000   0.0000   0.0000   0.6698
  -2.700   0.3575   0.00931   0.00291  -0.1434  0.7268  0.0968  -1.2828   0.0000   0.0000   0.0000   0.6563
  -2.600   0.3690   0.00924   0.00286  -0.1435  0.7254  0.1042  -1.2376   0.0000   0.0000   0.0000   0.6436
  -2.500   0.3806   0.00917   0.00281  -0.1436  0.7242  0.1127  -1.1927   0.0000   0.0000   0.0000   0.6317
  -2.400   0.3922   0.00911   0.00276  -0.1437  0.7230  0.1219  -1.1481   0.0000   0.0000   0.0000   0.6204
  -2.300   0.4038   0.00905   0.00273  -0.1438  0.7219  0.1322  -1.1036   0.0000   0.0000   0.0000   0.6098
  -2.200   0.4151   0.00898   0.00270  -0.1439  0.7204  0.1432  -1.0600   0.0000   0.0000   0.0000   0.6000
  -2.100   0.4265   0.00891   0.00268  -0.1440  0.7188  0.1549  -1.0166   0.0000   0.0000   0.0000   0.5906
  -2.000   0.4380   0.00885   0.00266  -0.1441  0.7172  0.1669  -0.9738   0.0000   0.0000   0.0000   0.5817
  -1.900   0.4494   0.00879   0.00263  -0.1442  0.7158  0.1792  -0.9341   0.0000   0.0000   0.0000   0.5732
  -1.800   0.4610   0.00873   0.00260  -0.1443  0.7144  0.1917  -0.8947   0.0000   0.0000   0.0000   0.5651
  -1.700   0.4725   0.00867   0.00258  -0.1444  0.7132  0.2048  -0.8556   0.0000   0.0000   0.0000   0.5574
  -1.600   0.4841   0.00862   0.00255  -0.1445  0.7120  0.2187  -0.8253   0.0000   0.0000   0.0000   0.5501
  -1.500   0.4955   0.00857   0.00254  -0.1446  0.7105  0.2338  -0.8327   0.0000   0.0000   0.0000   0.5431
  -1.300   0.5183   0.00844   0.00252  -0.1448  0.7072  0.2655  -0.8477   0.0000   0.0000   0.0000   0.5302
  -1.200   0.5297   0.00838   0.00251  -0.1449  0.7056  0.2827  -0.8553   0.0000   0.0000   0.0000   0.5241
  -1.100   0.5412   0.00832   0.00249  -0.1450  0.7041  0.3015  -0.8629   0.0000   0.0000   0.0000   0.5183
  -1.000   0.5527   0.00826   0.00248  -0.1451  0.7028  0.3222  -0.8705   0.0000   0.0000   0.0000   0.5127
  -0.800   0.5756   0.00814   0.00247  -0.1453  0.6999  0.3666  -0.8862   0.0000   0.0000   0.0000   0.5022
  -0.700   0.5869   0.00807   0.00248  -0.1453  0.6981  0.3905  -0.8941   0.0000   0.0000   0.0000   0.4973
  -0.600   0.5982   0.00800   0.00248  -0.1454  0.6964  0.4159  -0.9021   0.0000   0.0000   0.0000   0.4926
  -0.500   0.6096   0.00793   0.00248  -0.1455  0.6948  0.4418  -0.9101   0.0000   0.0000   0.0000   0.4880
  -0.400   0.6210   0.00787   0.00248  -0.1456  0.6933  0.4690  -0.9181   0.0000   0.0000   0.0000   0.4836
  -0.300   0.6324   0.00781   0.00248  -0.1457  0.6919  0.4969  -0.9263   0.0000   0.0000   0.0000   0.4793
  -0.200   0.6437   0.00776   0.00250  -0.1457  0.6905  0.5251  -0.9346   0.0000   0.0000   0.0000   0.4752
  -0.100   0.6549   0.00770   0.00252  -0.1458  0.6886  0.5523  -0.9426   0.0000   0.0000   0.0000   0.4712
   0.000   0.6660   0.00764   0.00254  -0.1458  0.6867  0.5786  -0.9510   0.0000   0.0000   0.0000   0.4673
   0.100   0.6772   0.00759   0.00255  -0.1458  0.6850  0.6046  -0.9596   0.0000   0.0000   0.0000   0.4636
   0.200   0.6884   0.00754   0.00257  -0.1458  0.6833  0.6304  -0.9684   0.0000   0.0000   0.0000   0.4599
   0.300   0.6996   0.00750   0.00258  -0.1458  0.6818  0.6562  -0.9773   0.0000   0.0000   0.0000   0.4564
   0.400   0.7107   0.00748   0.00260  -0.1458  0.6803  0.6793  -0.9862   0.0000   0.0000   0.0000   0.4529
   0.500   0.7216   0.00744   0.00263  -0.1457  0.6783  0.7004  -0.9949   0.0000   0.0000   0.0000   0.4496
   0.600   0.7326   0.00741   0.00265  -0.1457  0.6762  0.7200  -1.0036   0.0000   0.0000   0.0000   0.4463
   0.700   0.7436   0.00738   0.00267  -0.1456  0.6743  0.7379  -1.0125   0.0000   0.0000   0.0000   0.4431
   0.900   0.7654   0.00735   0.00269  -0.1454  0.6710  0.7722  -1.0308   0.0000   0.0000   0.0000   0.4370
   1.000   0.7763   0.00734   0.00271  -0.1453  0.6692  0.7887  -1.0400   0.0000   0.0000   0.0000   0.4341
   1.100   0.7868   0.00731   0.00274  -0.1451  0.6671  0.8044  -1.0491   0.0000   0.0000   0.0000   0.4312
   1.200   0.7973   0.00728   0.00276  -0.1450  0.6650  0.8209  -1.0582   0.0000   0.0000   0.0000   0.4284
   1.300   0.8077   0.00726   0.00277  -0.1447  0.6630  0.8373  -1.0678   0.0000   0.0000   0.0000   0.4257
   1.400   0.8179   0.00724   0.00278  -0.1445  0.6612  0.8543  -1.0775   0.0000   0.0000   0.0000   0.4230
   1.600   0.8370   0.00718   0.00281  -0.1436  0.6573  0.8936  -1.0961   0.0000   0.0000   0.0000   0.4177
   1.700   0.8459   0.00713   0.00281  -0.1430  0.6550  0.9192  -1.1050   0.0000   0.0000   0.0000   0.4150
   1.800   0.8578   0.00708   0.00280  -0.1431  0.6528  0.9559  -1.1159   0.0000   0.0000   0.0000   0.4126
   1.900   0.8737   0.00707   0.00277  -0.1441  0.6507  1.0000  -1.1296   0.0000   0.0000   0.0000   0.4106
   2.000   0.8852   0.00711   0.00277  -0.1442  0.6489  1.0000  -1.1407   0.0000   0.0000   0.0000   0.4084
   2.100   0.8965   0.00713   0.00280  -0.1442  0.6463  1.0000  -1.1516   0.0000   0.0000   0.0000   0.4063
   2.200   0.9079   0.00715   0.00282  -0.1443  0.6439  1.0000  -1.1627   0.0000   0.0000   0.0000   0.4042
   2.300   0.9192   0.00718   0.00283  -0.1444  0.6416  1.0000  -1.1738   0.0000   0.0000   0.0000   0.4022
   2.400   0.9305   0.00722   0.00284  -0.1444  0.6395  1.0000  -1.1855   0.0000   0.0000   0.0000   0.4002
   2.500   0.9419   0.00726   0.00286  -0.1445  0.6373  1.0000  -1.1973   0.0000   0.0000   0.0000   0.3983
   2.600   0.9531   0.00728   0.00289  -0.1445  0.6346  1.0000  -1.2093   0.0000   0.0000   0.0000   0.3964
   2.700   0.9643   0.00731   0.00291  -0.1446  0.6320  1.0000  -1.2213   0.0000   0.0000   0.0000   0.3945
   2.800   0.9755   0.00735   0.00293  -0.1446  0.6296  1.0000  -1.2334   0.0000   0.0000   0.0000   0.3927
   2.900   0.9867   0.00740   0.00294  -0.1446  0.6274  1.0000  -1.2454   0.0000   0.0000   0.0000   0.3909
   3.000   0.9979   0.00742   0.00298  -0.1447  0.6245  1.0000  -1.2577   0.0000   0.0000   0.0000   0.3892
   3.100   1.0090   0.00745   0.00301  -0.1447  0.6217  1.0000  -1.2704   0.0000   0.0000   0.0000   0.3875
   3.200   1.0201   0.00750   0.00303  -0.1447  0.6191  1.0000  -1.2832   0.0000   0.0000   0.0000   0.3858
   3.300   1.0311   0.00755   0.00306  -0.1447  0.6167  1.0000  -1.2959   0.0000   0.0000   0.0000   0.3842
   3.400   1.0423   0.00758   0.00310  -0.1448  0.6136  1.0000  -1.3089   0.0000   0.0000   0.0000   0.3826
   3.500   1.0533   0.00761   0.00313  -0.1448  0.6106  1.0000  -1.3221   0.0000   0.0000   0.0000   0.3810
   3.600   1.0642   0.00766   0.00315  -0.1447  0.6079  1.0000  -1.3355   0.0000   0.0000   0.0000   0.3794
   3.700   1.0752   0.00771   0.00319  -0.1447  0.6051  1.0000  -1.3491   0.0000   0.0000   0.0000   0.3779
   3.800   1.0862   0.00775   0.00323  -0.1447  0.6018  1.0000  -1.3632   0.0000   0.0000   0.0000   0.3764
   3.900   1.0970   0.00780   0.00326  -0.1447  0.5986  1.0000  -1.3778   0.0000   0.0000   0.0000   0.3749
   4.000   1.1077   0.00786   0.00330  -0.1447  0.5958  1.0000  -1.3926   0.0000   0.0000   0.0000   0.3735
   4.100   1.1187   0.00790   0.00335  -0.1447  0.5923  1.0000  -1.4079   0.0000   0.0000   0.0000   0.3721
   4.200   1.1294   0.00795   0.00339  -0.1446  0.5888  1.0000  -1.4232   0.0000   0.0000   0.0000   0.3707
   4.300   1.1400   0.00801   0.00343  -0.1446  0.5855  1.0000  -1.4387   0.0000   0.0000   0.0000   0.3693
   4.400   1.1508   0.00806   0.00348  -0.1445  0.5819  1.0000  -1.4545   0.0000   0.0000   0.0000   0.3679
   4.500   1.1614   0.00812   0.00353  -0.1445  0.5781  1.0000  -1.4703   0.0000   0.0000   0.0000   0.3666
   4.600   1.1718   0.00819   0.00357  -0.1444  0.5745  1.0000  -1.4864   0.0000   0.0000   0.0000   0.3653
   4.700   1.1825   0.00824   0.00363  -0.1443  0.5706  1.0000  -1.5028   0.0000   0.0000   0.0000   0.3640
   4.800   1.1930   0.00830   0.00368  -0.1442  0.5666  1.0000  -1.5190   0.0000   0.0000   0.0000   0.3627
   4.900   1.2032   0.00839   0.00374  -0.1441  0.5630  1.0000  -1.5353   0.0000   0.0000   0.0000   0.3614
   5.000   1.2138   0.00844   0.00380  -0.1441  0.5588  1.0000  -1.5524   0.0000   0.0000   0.0000   0.3602
   5.100   1.2241   0.00851   0.00386  -0.1439  0.5546  1.0000  -1.5695   0.0000   0.0000   0.0000   0.3589
   5.200   1.2343   0.00859   0.00392  -0.1438  0.5507  1.0000  -1.5880   0.0000   0.0000   0.0000   0.3577
   5.300   1.2446   0.00866   0.00398  -0.1437  0.5463  1.0000  -1.6071   0.0000   0.0000   0.0000   0.3565
   5.400   1.2545   0.00875   0.00405  -0.1435  0.5421  1.0000  -1.6261   0.0000   0.0000   0.0000   0.3553
   5.500   1.2648   0.00882   0.00412  -0.1434  0.5376  1.0000  -1.6461   0.0000   0.0000   0.0000   0.3542
   5.600   1.2747   0.00891   0.00419  -0.1433  0.5329  1.0000  -1.6659   0.0000   0.0000   0.0000   0.3530
   5.700   1.2846   0.00900   0.00427  -0.1431  0.5283  1.0000  -1.6856   0.0000   0.0000   0.0000   0.3519
   5.800   1.2945   0.00909   0.00435  -0.1429  0.5231  1.0000  -1.7061   0.0000   0.0000   0.0000   0.3508
   5.900   1.3040   0.00920   0.00444  -0.1427  0.5182  1.0000  -1.7263   0.0000   0.0000   0.0000   0.3496
   6.000   1.3137   0.00929   0.00452  -0.1425  0.5126  1.0000  -1.7469   0.0000   0.0000   0.0000   0.3485
   6.100   1.3230   0.00941   0.00461  -0.1422  0.5074  1.0000  -1.7677   0.0000   0.0000   0.0000   0.3474
   6.200   1.3326   0.00951   0.00470  -0.1420  0.5017  1.0000  -1.7896   0.0000   0.0000   0.0000   0.3463
   6.300   1.3416   0.00963   0.00480  -0.1417  0.4963  1.0000  -1.8146   0.0000   0.0000   0.0000   0.3452
   6.400   1.3510   0.00974   0.00490  -0.1414  0.4906  1.0000  -1.8403   0.0000   0.0000   0.0000   0.3441
   6.500   1.3600   0.00987   0.00501  -0.1411  0.4852  1.0000  -1.8656   0.0000   0.0000   0.0000   0.3431
   6.600   1.3691   0.00999   0.00511  -0.1408  0.4794  1.0000  -1.8923   0.0000   0.0000   0.0000   0.3420
   6.700   1.3779   0.01013   0.00522  -0.1405  0.4739  1.0000  -1.9205   0.0000   0.0000   0.0000   0.3410
   6.800   1.3867   0.01026   0.00534  -0.1401  0.4679  1.0000  -1.9495   0.0000   0.0000   0.0000   0.3399
   6.900   1.3953   0.01040   0.00546  -0.1398  0.4622  1.0000  -1.9793   0.0000   0.0000   0.0000   0.3389
   7.000   1.4037   0.01055   0.00558  -0.1394  0.4561  1.0000  -2.0091   0.0000   0.0000   0.0000   0.3378
   7.100   1.4121   0.01069   0.00571  -0.1390  0.4499  1.0000  -2.0392   0.0000   0.0000   0.0000   0.3368
   7.300   1.4277   0.01103   0.00600  -0.1380  0.4363  1.0000  -2.0983   0.0000   0.0000   0.0000   0.3347
   7.400   1.4351   0.01121   0.00615  -0.1374  0.4294  1.0000  -2.1288   0.0000   0.0000   0.0000   0.3337
   7.500   1.4420   0.01141   0.00632  -0.1367  0.4223  1.0000  -2.1597   0.0000   0.0000   0.0000   0.3326
   7.600   1.4493   0.01158   0.00647  -0.1362  0.4152  1.0000  -2.1915   0.0000   0.0000   0.0000   0.3316
   7.700   1.4554   0.01177   0.00663  -0.1354  0.4088  1.0000  -2.2213   0.0000   0.0000   0.0000   0.3305
   7.800   1.4617   0.01197   0.00680  -0.1346  0.4021  1.0000  -2.2518   0.0000   0.0000   0.0000   0.3294
   7.900   1.4683   0.01216   0.00697  -0.1339  0.3959  1.0000  -2.2828   0.0000   0.0000   0.0000   0.3283
   8.100   1.4806   0.01259   0.00736  -0.1324  0.3829  1.0000  -2.3461   0.0000   0.0000   0.0000   0.3263
   8.200   1.4863   0.01283   0.00758  -0.1316  0.3765  1.0000  -2.3773   0.0000   0.0000   0.0000   0.3252
   8.300   1.4920   0.01308   0.00780  -0.1309  0.3698  1.0000  -2.4084   0.0000   0.0000   0.0000   0.3242
   8.400   1.4980   0.01332   0.00802  -0.1301  0.3633  1.0000  -2.4404   0.0000   0.0000   0.0000   0.3232
   8.500   1.5030   0.01360   0.00827  -0.1293  0.3571  1.0000  -2.4707   0.0000   0.0000   0.0000   0.3222
   8.600   1.5090   0.01385   0.00851  -0.1286  0.3505  1.0000  -2.5028   0.0000   0.0000   0.0000   0.3212
   8.700   1.5144   0.01413   0.00877  -0.1279  0.3444  1.0000  -2.5373   0.0000   0.0000   0.0000   0.3202
   8.800   1.5195   0.01443   0.00904  -0.1271  0.3382  1.0000  -2.5777   0.0000   0.0000   0.0000   0.3193
   8.900   1.5252   0.01472   0.00931  -0.1264  0.3319  1.0000  -2.6198   0.0000   0.0000   0.0000   0.3183
   9.000   1.5298   0.01505   0.00962  -0.1256  0.3258  1.0000  -2.6596   0.0000   0.0000   0.0000   0.3174
   9.100   1.5353   0.01536   0.00991  -0.1249  0.3194  1.0000  -2.7014   0.0000   0.0000   0.0000   0.3165
   9.200   1.5403   0.01569   0.01022  -0.1241  0.3133  1.0000  -2.7424   0.0000   0.0000   0.0000   0.3155
   9.300   1.5447   0.01606   0.01056  -0.1233  0.3071  1.0000  -2.7821   0.0000   0.0000   0.0000   0.3146
   9.400   1.5499   0.01639   0.01088  -0.1227  0.3008  1.0000  -2.8240   0.0000   0.0000   0.0000   0.3137
   9.500   1.5542   0.01678   0.01124  -0.1219  0.2947  1.0000  -2.8638   0.0000   0.0000   0.0000   0.3128
   9.600   1.5590   0.01715   0.01160  -0.1212  0.2884  1.0000  -2.9048   0.0000   0.0000   0.0000   0.3120
   9.700   1.5637   0.01753   0.01195  -0.1205  0.2825  1.0000  -2.9460   0.0000   0.0000   0.0000   0.3111
   9.800   1.5675   0.01797   0.01236  -0.1197  0.2767  1.0000  -2.9848   0.0000   0.0000   0.0000   0.3102
   9.900   1.5725   0.01834   0.01272  -0.1190  0.2705  1.0000  -3.0270   0.0000   0.0000   0.0000   0.3094
  10.000   1.5766   0.01877   0.01313  -0.1183  0.2648  1.0000  -3.0670   0.0000   0.0000   0.0000   0.3085
  10.100   1.5807   0.01920   0.01354  -0.1175  0.2589  1.0000  -3.1073   0.0000   0.0000   0.0000   0.3077
  10.200   1.5850   0.01963   0.01395  -0.1168  0.2531  1.0000  -3.1482   0.0000   0.0000   0.0000   0.3069
  10.300   1.5883   0.02011   0.01441  -0.1160  0.2473  1.0000  -3.1866   0.0000   0.0000   0.0000   0.3060
  10.400   1.5924   0.02056   0.01484  -0.1153  0.2411  1.0000  -3.2272   0.0000   0.0000   0.0000   0.3052
  10.500   1.5960   0.02104   0.01530  -0.1146  0.2352  1.0000  -3.2667   0.0000   0.0000   0.0000   0.3044
  10.700   1.6028   0.02205   0.01626  -0.1131  0.2230  1.0000  -3.3478   0.0000   0.0000   0.0000   0.3028
  10.800   1.6059   0.02258   0.01676  -0.1123  0.2171  1.0000  -3.3886   0.0000   0.0000   0.0000   0.3020
  10.900   1.6083   0.02315   0.01731  -0.1115  0.2112  1.0000  -3.4274   0.0000   0.0000   0.0000   0.3012
  11.000   1.6116   0.02367   0.01781  -0.1108  0.2049  1.0000  -3.4693   0.0000   0.0000   0.0000   0.3004
  11.100   1.6144   0.02423   0.01835  -0.1100  0.1991  1.0000  -3.5096   0.0000   0.0000   0.0000   0.2996
  11.200   1.6165   0.02484   0.01892  -0.1092  0.1933  1.0000  -3.5482   0.0000   0.0000   0.0000   0.2988
  11.300   1.6195   0.02539   0.01946  -0.1085  0.1874  1.0000  -3.5893   0.0000   0.0000   0.0000   0.2980
  11.400   1.6222   0.02598   0.02002  -0.1077  0.1820  1.0000  -3.6297   0.0000   0.0000   0.0000   0.2973
  11.600   1.6272   0.02717   0.02118  -0.1062  0.1715  1.0000  -3.7097   0.0000   0.0000   0.0000   0.2957
  11.700   1.6294   0.02778   0.02177  -0.1055  0.1667  1.0000  -3.7492   0.0000   0.0000   0.0000   0.2950
  11.800   1.6317   0.02840   0.02238  -0.1047  0.1617  1.0000  -3.7888   0.0000   0.0000   0.0000   0.2943
  11.900   1.6343   0.02901   0.02297  -0.1040  0.1571  1.0000  -3.8296   0.0000   0.0000   0.0000   0.2935
  12.100   1.6387   0.03028   0.02421  -0.1026  0.1480  1.0000  -3.9091   0.0000   0.0000   0.0000   0.2921
  12.200   1.6405   0.03096   0.02488  -0.1019  0.1437  1.0000  -3.9476   0.0000   0.0000   0.0000   0.2914
  12.300   1.6428   0.03160   0.02551  -0.1012  0.1393  1.0000  -3.9877   0.0000   0.0000   0.0000   0.2906
  12.400   1.6448   0.03227   0.02617  -0.1005  0.1353  1.0000  -4.0271   0.0000   0.0000   0.0000   0.2899
  12.500   1.6466   0.03296   0.02684  -0.0998  0.1311  1.0000  -4.0660   0.0000   0.0000   0.0000   0.2893
  12.600   1.6488   0.03362   0.02750  -0.0991  0.1273  1.0000  -4.1063   0.0000   0.0000   0.0000   0.2886
  12.700   1.6504   0.03435   0.02822  -0.0984  0.1234  1.0000  -4.1446   0.0000   0.0000   0.0000   0.2879
  12.800   1.6526   0.03503   0.02890  -0.0978  0.1196  1.0000  -4.1852   0.0000   0.0000   0.0000   0.2872
  12.900   1.6540   0.03579   0.02964  -0.0972  0.1160  1.0000  -4.2230   0.0000   0.0000   0.0000   0.2866
  13.000   1.6562   0.03649   0.03034  -0.0966  0.1124  1.0000  -4.2637   0.0000   0.0000   0.0000   0.2859
  13.100   1.6575   0.03728   0.03111  -0.0959  0.1090  1.0000  -4.3011   0.0000   0.0000   0.0000   0.2853
  13.200   1.6597   0.03799   0.03183  -0.0953  0.1056  1.0000  -4.3419   0.0000   0.0000   0.0000   0.2846
  13.300   1.6607   0.03881   0.03263  -0.0947  0.1024  1.0000  -4.3788   0.0000   0.0000   0.0000   0.2840
  13.400   1.6628   0.03953   0.03337  -0.0941  0.0993  1.0000  -4.4193   0.0000   0.0000   0.0000   0.2834
  13.500   1.6638   0.04036   0.03419  -0.0935  0.0963  1.0000  -4.4564   0.0000   0.0000   0.0000   0.2828
  13.600   1.6656   0.04114   0.03496  -0.0930  0.0934  1.0000  -4.4971   0.0000   0.0000   0.0000   0.2822
  13.700   1.6670   0.04196   0.03578  -0.0924  0.0905  1.0000  -4.5378   0.0000   0.0000   0.0000   0.2816
  13.800   1.6682   0.04279   0.03662  -0.0919  0.0879  1.0000  -4.5784   0.0000   0.0000   0.0000   0.2810
  13.900   1.6699   0.04360   0.03743  -0.0914  0.0851  1.0000  -4.6205   0.0000   0.0000   0.0000   0.2804
  14.000   1.6705   0.04451   0.03834  -0.0908  0.0826  1.0000  -4.6588   0.0000   0.0000   0.0000   0.2798
  14.100   1.6724   0.04531   0.03914  -0.0903  0.0800  1.0000  -4.7052   0.0000   0.0000   0.0000   0.2793
  14.200   1.6731   0.04623   0.04006  -0.0898  0.0777  1.0000  -4.7493   0.0000   0.0000   0.0000   0.2787
  14.300   1.6746   0.04709   0.04092  -0.0894  0.0754  1.0000  -4.7966   0.0000   0.0000   0.0000   0.2782
  14.400   1.6757   0.04797   0.04181  -0.0889  0.0732  1.0000  -4.8428   0.0000   0.0000   0.0000   0.2776
  14.500   1.6759   0.04895   0.04279  -0.0884  0.0712  1.0000  -4.8849   0.0000   0.0000   0.0000   0.2771
  14.600   1.6776   0.04979   0.04365  -0.0879  0.0692  1.0000  -4.9338   0.0000   0.0000   0.0000   0.2766
  14.700   1.6785   0.05073   0.04459  -0.0875  0.0672  1.0000  -4.9789   0.0000   0.0000   0.0000   0.2760
  14.800   1.6786   0.05175   0.04561  -0.0870  0.0656  1.0000  -5.0209   0.0000   0.0000   0.0000   0.2755
  14.900   1.6803   0.05261   0.04650  -0.0866  0.0638  1.0000  -5.0700   0.0000   0.0000   0.0000   0.2750
  15.000   1.6811   0.05357   0.04747  -0.0862  0.0622  1.0000  -5.1152   0.0000   0.0000   0.0000   0.2745
  15.100   1.6808   0.05466   0.04856  -0.0858  0.0608  1.0000  -5.1559   0.0000   0.0000   0.0000   0.2741
  15.200   1.6823   0.05556   0.04948  -0.0855  0.0593  1.0000  -5.2045   0.0000   0.0000   0.0000   0.2736
  15.300   1.6834   0.05653   0.05046  -0.0851  0.0579  1.0000  -5.2510   0.0000   0.0000   0.0000   0.2731
  15.400   1.6835   0.05759   0.05154  -0.0847  0.0565  1.0000  -5.2936   0.0000   0.0000   0.0000   0.2727
  15.500   1.6831   0.05872   0.05268  -0.0844  0.0554  1.0000  -5.3338   0.0000   0.0000   0.0000   0.2722
  15.600   1.6847   0.05965   0.05364  -0.0841  0.0541  1.0000  -5.3827   0.0000   0.0000   0.0000   0.2718
  15.700   1.6854   0.06067   0.05467  -0.0838  0.0529  1.0000  -5.4282   0.0000   0.0000   0.0000   0.2713
  15.800   1.6853   0.06178   0.05580  -0.0834  0.0518  1.0000  -5.4700   0.0000   0.0000   0.0000   0.2709
  15.900   1.6842   0.06300   0.05703  -0.0831  0.0508  1.0000  -5.5073   0.0000   0.0000   0.0000   0.2705
  16.000   1.6852   0.06400   0.05805  -0.0828  0.0497  1.0000  -5.5540   0.0000   0.0000   0.0000   0.2701
  16.100   1.6859   0.06504   0.05913  -0.0826  0.0486  1.0000  -5.5995   0.0000   0.0000   0.0000   0.2696
  16.200   1.6859   0.06617   0.06028  -0.0823  0.0476  1.0000  -5.6418   0.0000   0.0000   0.0000   0.2693
  16.300   1.6851   0.06740   0.06151  -0.0820  0.0467  1.0000  -5.6806   0.0000   0.0000   0.0000   0.2689
  16.400   1.6834   0.06875   0.06288  -0.0818  0.0459  1.0000  -5.7147   0.0000   0.0000   0.0000   0.2685
  16.500   1.6848   0.06974   0.06390  -0.0816  0.0449  1.0000  -5.7637   0.0000   0.0000   0.0000   0.2681
  16.600   1.6852   0.07086   0.06505  -0.0814  0.0440  1.0000  -5.8078   0.0000   0.0000   0.0000   0.2678
  16.700   1.6848   0.07207   0.06629  -0.0812  0.0430  1.0000  -5.8484   0.0000   0.0000   0.0000   0.2674
  16.800   1.6836   0.07338   0.06761  -0.0810  0.0422  1.0000  -5.8854   0.0000   0.0000   0.0000   0.2671
  16.900   1.6814   0.07483   0.06908  -0.0808  0.0415  1.0000  -5.9170   0.0000   0.0000   0.0000   0.2668
  17.000   1.6822   0.07592   0.07020  -0.0807  0.0406  1.0000  -5.9633   0.0000   0.0000   0.0000   0.2665
  17.100   1.6823   0.07711   0.07142  -0.0806  0.0398  1.0000  -6.0058   0.0000   0.0000   0.0000   0.2661
  17.200   1.6816   0.07838   0.07272  -0.0805  0.0389  1.0000  -6.0452   0.0000   0.0000   0.0000   0.2658
  17.300   1.6802   0.07975   0.07411  -0.0803  0.0382  1.0000  -6.0806   0.0000   0.0000   0.0000   0.2656
  17.400   1.6777   0.08125   0.07563  -0.0802  0.0376  1.0000  -6.1110   0.0000   0.0000   0.0000   0.2653
  17.500   1.6760   0.08268   0.07708  -0.0802  0.0369  1.0000  -6.1442   0.0000   0.0000   0.0000   0.2651
  17.600   1.6761   0.08388   0.07832  -0.0801  0.0362  1.0000  -6.1868   0.0000   0.0000   0.0000   0.2648
  17.700   1.6755   0.08517   0.07964  -0.0800  0.0354  1.0000  -6.2262   0.0000   0.0000   0.0000   0.2645
  17.800   1.6741   0.08659   0.08108  -0.0800  0.0348  1.0000  -6.2612   0.0000   0.0000   0.0000   0.2643
  17.900   1.6721   0.08808   0.08260  -0.0800  0.0342  1.0000  -6.2933   0.0000   0.0000   0.0000   0.2641
  18.000   1.6692   0.08970   0.08424  -0.0800  0.0336  1.0000  -6.3204   0.0000   0.0000   0.0000   0.2640
  18.100   1.6655   0.09146   0.08601  -0.0801  0.0331  1.0000  -6.3427   0.0000   0.0000   0.0000   0.2638
  18.200   1.6656   0.09270   0.08730  -0.0801  0.0325  1.0000  -6.3847   0.0000   0.0000   0.0000   0.2636
  18.300   1.6649   0.09406   0.08870  -0.0802  0.0319  1.0000  -6.4225   0.0000   0.0000   0.0000   0.2634
  18.400   1.6636   0.09549   0.09016  -0.0803  0.0313  1.0000  -6.4574   0.0000   0.0000   0.0000   0.2632
  18.500   1.6615   0.09705   0.09175  -0.0804  0.0308  1.0000  -6.4881   0.0000   0.0000   0.0000   0.2631
  18.600   1.6590   0.09866   0.09338  -0.0805  0.0303  1.0000  -6.5165   0.0000   0.0000   0.0000   0.2630
  18.700   1.6555   0.10042   0.09516  -0.0807  0.0298  1.0000  -6.5393   0.0000   0.0000   0.0000   0.2630
  18.800   1.6511   0.10229   0.09706  -0.0809  0.0294  1.0000  -6.5565   0.0000   0.0000   0.0000   0.2629
  18.900   1.6495   0.10381   0.09862  -0.0811  0.0290  1.0000  -6.5882   0.0000   0.0000   0.0000   0.2628
  19.000   1.6486   0.10520   0.10005  -0.0812  0.0285  1.0000  -6.6244   0.0000   0.0000   0.0000   0.2627
  19.100   1.6471   0.10669   0.10158  -0.0814  0.0280  1.0000  -6.6571   0.0000   0.0000   0.0000   0.2626
  19.200   1.6452   0.10826   0.10318  -0.0817  0.0276  1.0000  -6.6876   0.0000   0.0000   0.0000   0.2625
  19.300   1.6429   0.10990   0.10485  -0.0819  0.0272  1.0000  -6.7151   0.0000   0.0000   0.0000   0.2625
  19.400   1.6400   0.11161   0.10660  -0.0822  0.0268  1.0000  -6.7397   0.0000   0.0000   0.0000   0.2625
  19.500   1.6367   0.11341   0.10842  -0.0826  0.0265  1.0000  -6.7614   0.0000   0.0000   0.0000   0.2626
  19.600   1.6327   0.11531   0.11035  -0.0830  0.0262  1.0000  -6.7785   0.0000   0.0000   0.0000   0.2627
  19.700   1.6279   0.11735   0.11241  -0.0834  0.0259  1.0000  -6.7903   0.0000   0.0000   0.0000   0.2629
  19.800   1.6252   0.11909   0.11418  -0.0838  0.0256  1.0000  -6.8137   0.0000   0.0000   0.0000   0.2629
  19.900   1.6240   0.12059   0.11573  -0.0842  0.0252  1.0000  -6.8461   0.0000   0.0000   0.0000   0.2629
  20.000   1.6224   0.12217   0.11735  -0.0846  0.0249  1.0000  -6.8753   0.0000   0.0000   0.0000   0.2629


