xflr5 v6.57

 Calculated polar for: reaf

 1 1 Reynolds number fixed          Mach number fixed         

 xtrf =   1.000 (top)        1.000 (bottom)
 Mach =   0.000     Re =     0.580 e 6     Ncrit =   9.000

  alpha     CL        CD       CDp       Cm    Top Xtr Bot Xtr   Cpmin    Chinge    XCp    
 ------- -------- --------- --------- -------- ------- ------- -------- --------- ---------
  -9.800  -0.2635   0.06781   0.06493  -0.0922  0.8253  0.0264  -3.5166   0.0000   0.0000   0.0000  -0.1300
  -9.700  -0.2608   0.06668   0.06379  -0.0931  0.8237  0.0264  -3.4961   0.0000   0.0000   0.0000  -0.1371
  -9.600  -0.2577   0.06562   0.06273  -0.0940  0.8222  0.0265  -3.4704   0.0000   0.0000   0.0000  -0.1450
  -9.500  -0.2540   0.06465   0.06176  -0.0949  0.8209  0.0266  -3.4385   0.0000   0.0000   0.0000  -0.1536
  -9.400  -0.2497   0.06383   0.06092  -0.0957  0.8197  0.0268  -3.3980   0.0000   0.0000   0.0000  -0.1633
  -9.300  -0.2442   0.06318   0.06029  -0.0964  0.8180  0.0269  -3.3453   0.0000   0.0000   0.0000  -0.1751
  -9.200  -0.2373   0.06285   0.05996  -0.0969  0.8164  0.0271  -3.2746   0.0000   0.0000   0.0000  -0.1888
  -9.100  -0.2292   0.06282   0.05992  -0.0971  0.8150  0.0274  -3.1882   0.0000   0.0000   0.0000  -0.2045
  -9.000  -0.2050   0.06660   0.06368  -0.0941  0.8140  0.0284  -2.8805   0.0000   0.0000   0.0000  -0.2426
  -8.900  -0.1915   0.06796   0.06504  -0.0935  0.8127  0.0308  -2.7008   0.0000   0.0000   0.0000  -0.2730
  -8.800  -0.1872   0.06712   0.06419  -0.0942  0.8115  0.0310  -2.6669   0.0000   0.0000   0.0000  -0.2881
  -8.600  -0.3020   0.01902   0.01343  -0.1393  0.8045  0.0280  -4.9334   0.0000   0.0000   0.0000  -0.2362
  -8.500  -0.2915   0.01874   0.01310  -0.1394  0.8033  0.0284  -4.8527   0.0000   0.0000   0.0000  -0.2536
  -8.400  -0.2809   0.01845   0.01274  -0.1395  0.8023  0.0287  -4.7748   0.0000   0.0000   0.0000  -0.2724
  -8.300  -0.2703   0.01815   0.01236  -0.1395  0.8013  0.0290  -4.6987   0.0000   0.0000   0.0000  -0.2928
  -8.200  -0.2597   0.01785   0.01198  -0.1396  0.8001  0.0293  -4.6269   0.0000   0.0000   0.0000  -0.3148
  -8.100  -0.2490   0.01758   0.01164  -0.1397  0.7987  0.0295  -4.5592   0.0000   0.0000   0.0000  -0.3390
  -8.000  -0.2381   0.01736   0.01135  -0.1398  0.7973  0.0297  -4.4894   0.0000   0.0000   0.0000  -0.3657
  -7.900  -0.2282   0.01679   0.01074  -0.1398  0.7961  0.0301  -4.4309   0.0000   0.0000   0.0000  -0.3923
  -7.800  -0.2178   0.01643   0.01037  -0.1399  0.7949  0.0304  -4.3598   0.0000   0.0000   0.0000  -0.4228
  -7.700  -0.2071   0.01619   0.01013  -0.1400  0.7938  0.0307  -4.2837   0.0000   0.0000   0.0000  -0.4576
  -7.600  -0.1961   0.01599   0.00991  -0.1401  0.7927  0.0310  -4.2067   0.0000   0.0000   0.0000  -0.4969
  -7.500  -0.1851   0.01582   0.00971  -0.1401  0.7918  0.0313  -4.1304   0.0000   0.0000   0.0000  -0.5411
  -7.400  -0.1741   0.01563   0.00950  -0.1402  0.7907  0.0316  -4.0558   0.0000   0.0000   0.0000  -0.5907
  -7.300  -0.1632   0.01544   0.00929  -0.1403  0.7893  0.0320  -3.9829   0.0000   0.0000   0.0000  -0.6469
  -7.200  -0.1522   0.01525   0.00907  -0.1403  0.7879  0.0324  -3.9109   0.0000   0.0000   0.0000  -0.7115
  -7.100  -0.1411   0.01507   0.00886  -0.1404  0.7867  0.0329  -3.8390   0.0000   0.0000   0.0000  -0.7866
  -7.000  -0.1299   0.01491   0.00865  -0.1405  0.7855  0.0333  -3.7675   0.0000   0.0000   0.0000  -0.8754
  -6.900  -0.1186   0.01478   0.00846  -0.1405  0.7843  0.0337  -3.6957   0.0000   0.0000   0.0000  -0.9822
  -6.800  -0.1078   0.01450   0.00813  -0.1406  0.7833  0.0342  -3.6294   0.0000   0.0000   0.0000  -1.1060
  -6.700  -0.0970   0.01421   0.00784  -0.1407  0.7824  0.0346  -3.5596   0.0000   0.0000   0.0000  -1.2560
  -6.600  -0.0860   0.01404   0.00767  -0.1407  0.7813  0.0351  -3.4859   0.0000   0.0000   0.0000  -1.4497
  -6.500  -0.0749   0.01389   0.00753  -0.1408  0.7799  0.0355  -3.4132   0.0000   0.0000   0.0000  -1.7003
  -6.400  -0.0638   0.01375   0.00738  -0.1409  0.7786  0.0360  -3.3425   0.0000   0.0000   0.0000  -2.0400
  -6.300  -0.0526   0.01360   0.00721  -0.1409  0.7773  0.0365  -3.2786   0.0000   0.0000   0.0000  -2.5267
  -6.200  -0.0413   0.01345   0.00704  -0.1410  0.7760  0.0371  -3.2157   0.0000   0.0000   0.0000  -3.2813
  -6.100  -0.0300   0.01332   0.00687  -0.1410  0.7749  0.0376  -3.1535   0.0000   0.0000   0.0000  -4.6108
  -6.000  -0.0186   0.01321   0.00671  -0.1411  0.7739  0.0381  -3.0912   0.0000   0.0000   0.0000  -7.5918
  -5.900  -0.0076   0.01297   0.00644  -0.1411  0.7729  0.0387  -3.0325   0.0000   0.0000   0.0000  -19.0666
  -5.800   0.0035   0.01277   0.00624  -0.1412  0.7720  0.0393  -2.9699   0.0000   0.0000   0.0000  41.4894
  -5.700   0.0146   0.01263   0.00612  -0.1413  0.7706  0.0399  -2.9057   0.0000   0.0000   0.0000  10.2144
  -5.600   0.0259   0.01252   0.00601  -0.1414  0.7692  0.0406  -2.8416   0.0000   0.0000   0.0000   5.8870
  -5.500   0.0372   0.01241   0.00590  -0.1414  0.7679  0.0413  -2.7783   0.0000   0.0000   0.0000   4.1697
  -5.400   0.0486   0.01232   0.00578  -0.1415  0.7667  0.0421  -2.7160   0.0000   0.0000   0.0000   3.2490
  -5.300   0.0601   0.01225   0.00567  -0.1415  0.7655  0.0429  -2.6540   0.0000   0.0000   0.0000   2.6738
  -5.200   0.0712   0.01203   0.00545  -0.1416  0.7644  0.0437  -2.5953   0.0000   0.0000   0.0000   2.2963
  -5.100   0.0825   0.01190   0.00531  -0.1417  0.7634  0.0446  -2.5326   0.0000   0.0000   0.0000   2.0151
  -5.000   0.0940   0.01181   0.00521  -0.1418  0.7624  0.0454  -2.4701   0.0000   0.0000   0.0000   1.7995
  -4.900   0.1054   0.01171   0.00511  -0.1419  0.7612  0.0464  -2.4095   0.0000   0.0000   0.0000   1.6326
  -4.800   0.1167   0.01162   0.00501  -0.1419  0.7597  0.0473  -2.3516   0.0000   0.0000   0.0000   1.4980
  -4.700   0.1281   0.01154   0.00490  -0.1420  0.7584  0.0482  -2.2983   0.0000   0.0000   0.0000   1.3866
  -4.600   0.1392   0.01135   0.00474  -0.1420  0.7571  0.0493  -2.2454   0.0000   0.0000   0.0000   1.2957
  -4.500   0.1506   0.01125   0.00464  -0.1421  0.7558  0.0503  -2.1900   0.0000   0.0000   0.0000   1.2164
  -4.400   0.1622   0.01117   0.00455  -0.1422  0.7547  0.0516  -2.1351   0.0000   0.0000   0.0000   1.1477
  -4.300   0.1738   0.01111   0.00445  -0.1423  0.7536  0.0529  -2.0810   0.0000   0.0000   0.0000   1.0877
  -4.200   0.1852   0.01099   0.00432  -0.1424  0.7527  0.0542  -2.0282   0.0000   0.0000   0.0000   1.0358
  -4.100   0.1966   0.01089   0.00424  -0.1425  0.7515  0.0557  -1.9741   0.0000   0.0000   0.0000   0.9904
  -4.000   0.2079   0.01082   0.00417  -0.1425  0.7500  0.0573  -1.9209   0.0000   0.0000   0.0000   0.9499
  -3.900   0.2194   0.01076   0.00410  -0.1426  0.7486  0.0588  -1.8687   0.0000   0.0000   0.0000   0.9132
  -3.800   0.2307   0.01063   0.00399  -0.1427  0.7472  0.0606  -1.8171   0.0000   0.0000   0.0000   0.8806
  -3.700   0.2422   0.01055   0.00391  -0.1427  0.7460  0.0625  -1.7645   0.0000   0.0000   0.0000   0.8506
  -3.600   0.2538   0.01050   0.00383  -0.1428  0.7448  0.0646  -1.7126   0.0000   0.0000   0.0000   0.8231
  -3.500   0.2653   0.01038   0.00373  -0.1429  0.7437  0.0670  -1.6612   0.0000   0.0000   0.0000   0.7983
  -3.400   0.2770   0.01033   0.00366  -0.1430  0.7427  0.0697  -1.6094   0.0000   0.0000   0.0000   0.7753
  -3.300   0.2884   0.01024   0.00359  -0.1431  0.7414  0.0726  -1.5591   0.0000   0.0000   0.0000   0.7544
  -3.200   0.2997   0.01017   0.00354  -0.1431  0.7399  0.0758  -1.5090   0.0000   0.0000   0.0000   0.7353
  -3.100   0.3111   0.01008   0.00347  -0.1432  0.7384  0.0794  -1.4628   0.0000   0.0000   0.0000   0.7174
  -3.000   0.3226   0.01002   0.00341  -0.1433  0.7370  0.0838  -1.4171   0.0000   0.0000   0.0000   0.7007
  -2.900   0.3341   0.00993   0.00334  -0.1434  0.7357  0.0888  -1.3715   0.0000   0.0000   0.0000   0.6853
  -2.800   0.3456   0.00985   0.00328  -0.1435  0.7344  0.0947  -1.3261   0.0000   0.0000   0.0000   0.6707
  -2.700   0.3572   0.00977   0.00322  -0.1436  0.7333  0.1016  -1.2808   0.0000   0.0000   0.0000   0.6571
  -2.600   0.3689   0.00971   0.00316  -0.1437  0.7322  0.1095  -1.2357   0.0000   0.0000   0.0000   0.6443
  -2.500   0.3802   0.00963   0.00313  -0.1438  0.7307  0.1185  -1.1916   0.0000   0.0000   0.0000   0.6325
  -2.400   0.3915   0.00956   0.00310  -0.1438  0.7291  0.1287  -1.1477   0.0000   0.0000   0.0000   0.6214
  -2.300   0.4029   0.00948   0.00307  -0.1439  0.7276  0.1398  -1.1038   0.0000   0.0000   0.0000   0.6109
  -2.200   0.4144   0.00941   0.00303  -0.1440  0.7262  0.1516  -1.0601   0.0000   0.0000   0.0000   0.6009
  -2.100   0.4259   0.00934   0.00299  -0.1441  0.7249  0.1642  -1.0165   0.0000   0.0000   0.0000   0.5914
  -2.000   0.4375   0.00928   0.00296  -0.1442  0.7236  0.1768  -0.9738   0.0000   0.0000   0.0000   0.5824
  -1.900   0.4491   0.00922   0.00292  -0.1443  0.7225  0.1899  -0.9339   0.0000   0.0000   0.0000   0.5738
  -1.800   0.4606   0.00917   0.00290  -0.1444  0.7212  0.2034  -0.8947   0.0000   0.0000   0.0000   0.5658
  -1.700   0.4718   0.00910   0.00290  -0.1445  0.7195  0.2174  -0.8562   0.0000   0.0000   0.0000   0.5582
  -1.600   0.4832   0.00903   0.00288  -0.1446  0.7179  0.2327  -0.8240   0.0000   0.0000   0.0000   0.5509
  -1.500   0.4946   0.00898   0.00287  -0.1447  0.7163  0.2488  -0.8315   0.0000   0.0000   0.0000   0.5439
  -1.400   0.5061   0.00891   0.00284  -0.1448  0.7149  0.2654  -0.8390   0.0000   0.0000   0.0000   0.5372
  -1.300   0.5176   0.00885   0.00282  -0.1449  0.7136  0.2831  -0.8467   0.0000   0.0000   0.0000   0.5308
  -1.200   0.5292   0.00878   0.00280  -0.1450  0.7124  0.3025  -0.8543   0.0000   0.0000   0.0000   0.5247
  -1.100   0.5406   0.00872   0.00279  -0.1451  0.7110  0.3236  -0.8619   0.0000   0.0000   0.0000   0.5189
  -1.000   0.5518   0.00865   0.00280  -0.1452  0.7092  0.3456  -0.8693   0.0000   0.0000   0.0000   0.5133
  -0.800   0.5745   0.00851   0.00279  -0.1453  0.7058  0.3935  -0.8849   0.0000   0.0000   0.0000   0.5029
  -0.700   0.5859   0.00844   0.00279  -0.1454  0.7043  0.4197  -0.8929   0.0000   0.0000   0.0000   0.4979
  -0.600   0.5973   0.00837   0.00278  -0.1455  0.7029  0.4465  -0.9010   0.0000   0.0000   0.0000   0.4931
  -0.500   0.6088   0.00831   0.00277  -0.1456  0.7017  0.4745  -0.9090   0.0000   0.0000   0.0000   0.4885
  -0.400   0.6200   0.00824   0.00280  -0.1457  0.7000  0.5029  -0.9169   0.0000   0.0000   0.0000   0.4841
  -0.300   0.6311   0.00817   0.00282  -0.1457  0.6981  0.5314  -0.9249   0.0000   0.0000   0.0000   0.4798
  -0.200   0.6422   0.00811   0.00283  -0.1457  0.6964  0.5592  -0.9330   0.0000   0.0000   0.0000   0.4757
  -0.100   0.6534   0.00805   0.00284  -0.1457  0.6947  0.5863  -0.9412   0.0000   0.0000   0.0000   0.4716
   0.000   0.6646   0.00800   0.00285  -0.1457  0.6932  0.6129  -0.9496   0.0000   0.0000   0.0000   0.4677
   0.100   0.6758   0.00795   0.00286  -0.1457  0.6918  0.6398  -0.9583   0.0000   0.0000   0.0000   0.4639
   0.200   0.6869   0.00792   0.00288  -0.1457  0.6903  0.6652  -0.9671   0.0000   0.0000   0.0000   0.4602
   0.300   0.6977   0.00788   0.00292  -0.1456  0.6883  0.6878  -0.9757   0.0000   0.0000   0.0000   0.4566
   0.400   0.7086   0.00785   0.00294  -0.1455  0.6864  0.7091  -0.9844   0.0000   0.0000   0.0000   0.4532
   0.500   0.7196   0.00782   0.00296  -0.1454  0.6846  0.7289  -0.9931   0.0000   0.0000   0.0000   0.4498
   0.600   0.7305   0.00779   0.00296  -0.1453  0.6829  0.7470  -1.0018   0.0000   0.0000   0.0000   0.4465
   0.700   0.7414   0.00777   0.00297  -0.1452  0.6814  0.7650  -1.0108   0.0000   0.0000   0.0000   0.4433
   0.800   0.7522   0.00775   0.00299  -0.1451  0.6796  0.7820  -1.0197   0.0000   0.0000   0.0000   0.4401
   0.900   0.7626   0.00773   0.00302  -0.1449  0.6775  0.7987  -1.0286   0.0000   0.0000   0.0000   0.4371
   1.000   0.7730   0.00770   0.00304  -0.1447  0.6755  0.8152  -1.0376   0.0000   0.0000   0.0000   0.4341
   1.100   0.7834   0.00767   0.00304  -0.1445  0.6736  0.8325  -1.0466   0.0000   0.0000   0.0000   0.4312
   1.200   0.7935   0.00765   0.00305  -0.1442  0.6719  0.8495  -1.0555   0.0000   0.0000   0.0000   0.4283
   1.300   0.8034   0.00762   0.00305  -0.1438  0.6703  0.8674  -1.0648   0.0000   0.0000   0.0000   0.4255
   1.400   0.8126   0.00759   0.00307  -0.1433  0.6682  0.8881  -1.0739   0.0000   0.0000   0.0000   0.4227
   1.500   0.8215   0.00754   0.00308  -0.1427  0.6660  0.9124  -1.0827   0.0000   0.0000   0.0000   0.4199
   1.600   0.8321   0.00748   0.00306  -0.1424  0.6639  0.9448  -1.0928   0.0000   0.0000   0.0000   0.4173
   1.700   0.8494   0.00744   0.00302  -0.1437  0.6619  1.0000  -1.1067   0.0000   0.0000   0.0000   0.4152
   1.800   0.8610   0.00748   0.00301  -0.1438  0.6602  1.0000  -1.1173   0.0000   0.0000   0.0000   0.4129
   1.900   0.8724   0.00750   0.00303  -0.1439  0.6579  1.0000  -1.1282   0.0000   0.0000   0.0000   0.4107
   2.000   0.8837   0.00752   0.00305  -0.1440  0.6555  1.0000  -1.1392   0.0000   0.0000   0.0000   0.4085
   2.100   0.8950   0.00755   0.00306  -0.1440  0.6532  1.0000  -1.1502   0.0000   0.0000   0.0000   0.4064
   2.200   0.9065   0.00758   0.00307  -0.1441  0.6511  1.0000  -1.1612   0.0000   0.0000   0.0000   0.4043
   2.300   0.9180   0.00762   0.00307  -0.1442  0.6492  1.0000  -1.1725   0.0000   0.0000   0.0000   0.4022
   2.400   0.9291   0.00764   0.00310  -0.1442  0.6467  1.0000  -1.1840   0.0000   0.0000   0.0000   0.4003
   2.500   0.9403   0.00767   0.00312  -0.1443  0.6441  1.0000  -1.1957   0.0000   0.0000   0.0000   0.3983
   2.600   0.9516   0.00770   0.00314  -0.1443  0.6418  1.0000  -1.2077   0.0000   0.0000   0.0000   0.3964
   2.700   0.9629   0.00773   0.00315  -0.1444  0.6396  1.0000  -1.2198   0.0000   0.0000   0.0000   0.3946
   2.800   0.9741   0.00777   0.00317  -0.1444  0.6374  1.0000  -1.2319   0.0000   0.0000   0.0000   0.3927
   2.900   0.9852   0.00780   0.00320  -0.1444  0.6345  1.0000  -1.2438   0.0000   0.0000   0.0000   0.3910
   3.000   0.9963   0.00783   0.00323  -0.1444  0.6319  1.0000  -1.2560   0.0000   0.0000   0.0000   0.3892
   3.100   1.0074   0.00787   0.00325  -0.1445  0.6295  1.0000  -1.2688   0.0000   0.0000   0.0000   0.3875
   3.200   1.0186   0.00792   0.00327  -0.1445  0.6271  1.0000  -1.2816   0.0000   0.0000   0.0000   0.3858
   3.300   1.0296   0.00795   0.00331  -0.1445  0.6241  1.0000  -1.2942   0.0000   0.0000   0.0000   0.3842
   3.400   1.0406   0.00798   0.00334  -0.1445  0.6212  1.0000  -1.3072   0.0000   0.0000   0.0000   0.3826
   3.500   1.0516   0.00803   0.00336  -0.1445  0.6187  1.0000  -1.3203   0.0000   0.0000   0.0000   0.3810
   3.600   1.0626   0.00807   0.00339  -0.1445  0.6161  1.0000  -1.3338   0.0000   0.0000   0.0000   0.3794
   3.700   1.0735   0.00811   0.00344  -0.1445  0.6128  1.0000  -1.3474   0.0000   0.0000   0.0000   0.3779
   3.800   1.0844   0.00815   0.00347  -0.1445  0.6098  1.0000  -1.3613   0.0000   0.0000   0.0000   0.3764
   3.900   1.0952   0.00820   0.00350  -0.1444  0.6071  1.0000  -1.3760   0.0000   0.0000   0.0000   0.3749
   4.000   1.1061   0.00825   0.00354  -0.1444  0.6039  1.0000  -1.3908   0.0000   0.0000   0.0000   0.3735
   4.100   1.1169   0.00829   0.00359  -0.1444  0.6005  1.0000  -1.4060   0.0000   0.0000   0.0000   0.3720
   4.200   1.1276   0.00835   0.00362  -0.1443  0.5974  1.0000  -1.4212   0.0000   0.0000   0.0000   0.3706
   4.300   1.1383   0.00840   0.00366  -0.1443  0.5943  1.0000  -1.4367   0.0000   0.0000   0.0000   0.3692
   4.400   1.1490   0.00845   0.00371  -0.1442  0.5906  1.0000  -1.4525   0.0000   0.0000   0.0000   0.3679
   4.500   1.1596   0.00850   0.00376  -0.1442  0.5871  1.0000  -1.4683   0.0000   0.0000   0.0000   0.3665
   4.600   1.1701   0.00857   0.00380  -0.1441  0.5838  1.0000  -1.4843   0.0000   0.0000   0.0000   0.3652
   4.700   1.1807   0.00862   0.00386  -0.1440  0.5797  1.0000  -1.5007   0.0000   0.0000   0.0000   0.3639
   4.800   1.1911   0.00868   0.00391  -0.1439  0.5760  1.0000  -1.5169   0.0000   0.0000   0.0000   0.3626
   4.900   1.2015   0.00875   0.00397  -0.1438  0.5724  1.0000  -1.5333   0.0000   0.0000   0.0000   0.3613
   5.000   1.2119   0.00881   0.00402  -0.1437  0.5682  1.0000  -1.5502   0.0000   0.0000   0.0000   0.3601
   5.100   1.2221   0.00889   0.00408  -0.1436  0.5644  1.0000  -1.5672   0.0000   0.0000   0.0000   0.3589
   5.200   1.2324   0.00895   0.00414  -0.1435  0.5604  1.0000  -1.5858   0.0000   0.0000   0.0000   0.3577
   5.300   1.2426   0.00902   0.00421  -0.1434  0.5561  1.0000  -1.6046   0.0000   0.0000   0.0000   0.3565
   5.500   1.2629   0.00918   0.00434  -0.1431  0.5478  1.0000  -1.6436   0.0000   0.0000   0.0000   0.3541
   5.600   1.2727   0.00927   0.00441  -0.1429  0.5434  1.0000  -1.6633   0.0000   0.0000   0.0000   0.3529
   5.700   1.2827   0.00935   0.00449  -0.1427  0.5390  1.0000  -1.6831   0.0000   0.0000   0.0000   0.3518
   5.800   1.2925   0.00944   0.00457  -0.1426  0.5342  1.0000  -1.7034   0.0000   0.0000   0.0000   0.3506
   5.900   1.3021   0.00954   0.00465  -0.1423  0.5296  1.0000  -1.7237   0.0000   0.0000   0.0000   0.3495
   6.000   1.3119   0.00963   0.00473  -0.1421  0.5243  1.0000  -1.7443   0.0000   0.0000   0.0000   0.3484
   6.100   1.3210   0.00975   0.00482  -0.1418  0.5194  1.0000  -1.7650   0.0000   0.0000   0.0000   0.3473
   6.200   1.3307   0.00984   0.00491  -0.1416  0.5137  1.0000  -1.7869   0.0000   0.0000   0.0000   0.3462
   6.300   1.3396   0.00997   0.00501  -0.1413  0.5086  1.0000  -1.8113   0.0000   0.0000   0.0000   0.3451
   6.400   1.3492   0.01006   0.00510  -0.1411  0.5029  1.0000  -1.8372   0.0000   0.0000   0.0000   0.3440
   6.500   1.3578   0.01020   0.00522  -0.1407  0.4976  1.0000  -1.8621   0.0000   0.0000   0.0000   0.3429
   6.600   1.3672   0.01030   0.00532  -0.1404  0.4918  1.0000  -1.8891   0.0000   0.0000   0.0000   0.3419
   6.700   1.3757   0.01045   0.00543  -0.1400  0.4865  1.0000  -1.9166   0.0000   0.0000   0.0000   0.3408
   6.800   1.3848   0.01056   0.00554  -0.1397  0.4806  1.0000  -1.9459   0.0000   0.0000   0.0000   0.3398
   6.900   1.3930   0.01072   0.00567  -0.1393  0.4752  1.0000  -1.9749   0.0000   0.0000   0.0000   0.3387
   7.000   1.4018   0.01084   0.00578  -0.1390  0.4691  1.0000  -2.0054   0.0000   0.0000   0.0000   0.3377
   7.100   1.4098   0.01100   0.00592  -0.1385  0.4634  1.0000  -2.0348   0.0000   0.0000   0.0000   0.3366
   7.200   1.4180   0.01115   0.00605  -0.1381  0.4571  1.0000  -2.0647   0.0000   0.0000   0.0000   0.3356
   7.300   1.4258   0.01131   0.00619  -0.1375  0.4509  1.0000  -2.0944   0.0000   0.0000   0.0000   0.3346
   7.400   1.4331   0.01149   0.00635  -0.1370  0.4442  1.0000  -2.1243   0.0000   0.0000   0.0000   0.3335
   7.500   1.4406   0.01166   0.00650  -0.1364  0.4371  1.0000  -2.1563   0.0000   0.0000   0.0000   0.3325
   7.600   1.4473   0.01186   0.00666  -0.1357  0.4303  1.0000  -2.1870   0.0000   0.0000   0.0000   0.3314
   7.700   1.4534   0.01205   0.00683  -0.1349  0.4234  1.0000  -2.2168   0.0000   0.0000   0.0000   0.3303
   7.800   1.4598   0.01224   0.00700  -0.1342  0.4167  1.0000  -2.2472   0.0000   0.0000   0.0000   0.3292
   7.900   1.4654   0.01246   0.00719  -0.1333  0.4104  1.0000  -2.2763   0.0000   0.0000   0.0000   0.3281
   8.000   1.4720   0.01266   0.00737  -0.1326  0.4037  1.0000  -2.3081   0.0000   0.0000   0.0000   0.3271
   8.100   1.4779   0.01288   0.00757  -0.1319  0.3976  1.0000  -2.3395   0.0000   0.0000   0.0000   0.3260
   8.200   1.4836   0.01312   0.00779  -0.1311  0.3911  1.0000  -2.3707   0.0000   0.0000   0.0000   0.3250
   8.300   1.4895   0.01335   0.00800  -0.1303  0.3846  1.0000  -2.4024   0.0000   0.0000   0.0000   0.3240
   8.400   1.4945   0.01363   0.00825  -0.1294  0.3783  1.0000  -2.4323   0.0000   0.0000   0.0000   0.3229
   8.500   1.5003   0.01387   0.00848  -0.1287  0.3715  1.0000  -2.4641   0.0000   0.0000   0.0000   0.3219
   8.600   1.5056   0.01415   0.00874  -0.1279  0.3653  1.0000  -2.4948   0.0000   0.0000   0.0000   0.3210
   8.700   1.5105   0.01445   0.00901  -0.1271  0.3589  1.0000  -2.5256   0.0000   0.0000   0.0000   0.3200
   8.800   1.5161   0.01473   0.00927  -0.1264  0.3525  1.0000  -2.5673   0.0000   0.0000   0.0000   0.3190
   8.900   1.5208   0.01506   0.00957  -0.1256  0.3465  1.0000  -2.6067   0.0000   0.0000   0.0000   0.3180
   9.000   1.5262   0.01535   0.00986  -0.1249  0.3400  1.0000  -2.6483   0.0000   0.0000   0.0000   0.3171
   9.100   1.5311   0.01569   0.01017  -0.1241  0.3340  1.0000  -2.6887   0.0000   0.0000   0.0000   0.3162
   9.200   1.5356   0.01604   0.01050  -0.1233  0.3277  1.0000  -2.7283   0.0000   0.0000   0.0000   0.3152
   9.300   1.5408   0.01637   0.01082  -0.1226  0.3214  1.0000  -2.7699   0.0000   0.0000   0.0000   0.3143
   9.400   1.5450   0.01676   0.01118  -0.1218  0.3155  1.0000  -2.8090   0.0000   0.0000   0.0000   0.3134
   9.500   1.5498   0.01712   0.01152  -0.1211  0.3090  1.0000  -2.8500   0.0000   0.0000   0.0000   0.3125
   9.600   1.5543   0.01751   0.01189  -0.1203  0.3029  1.0000  -2.8902   0.0000   0.0000   0.0000   0.3117
   9.700   1.5581   0.01794   0.01229  -0.1195  0.2968  1.0000  -2.9288   0.0000   0.0000   0.0000   0.3108
   9.800   1.5629   0.01831   0.01266  -0.1188  0.2906  1.0000  -2.9704   0.0000   0.0000   0.0000   0.3099
   9.900   1.5668   0.01875   0.01307  -0.1181  0.2847  1.0000  -3.0097   0.0000   0.0000   0.0000   0.3091
  10.000   1.5710   0.01917   0.01347  -0.1174  0.2786  1.0000  -3.0498   0.0000   0.0000   0.0000   0.3082
  10.100   1.5752   0.01960   0.01389  -0.1166  0.2727  1.0000  -3.0902   0.0000   0.0000   0.0000   0.3074
  10.300   1.5830   0.02051   0.01476  -0.1152  0.2610  1.0000  -3.1695   0.0000   0.0000   0.0000   0.3057
  10.400   1.5865   0.02100   0.01523  -0.1144  0.2554  1.0000  -3.2083   0.0000   0.0000   0.0000   0.3049
  10.500   1.5900   0.02148   0.01570  -0.1137  0.2494  1.0000  -3.2474   0.0000   0.0000   0.0000   0.3041
  10.600   1.5937   0.02197   0.01616  -0.1129  0.2435  1.0000  -3.2872   0.0000   0.0000   0.0000   0.3033
  10.700   1.5965   0.02251   0.01668  -0.1121  0.2378  1.0000  -3.3261   0.0000   0.0000   0.0000   0.3024
  10.800   1.6000   0.02302   0.01717  -0.1114  0.2316  1.0000  -3.3678   0.0000   0.0000   0.0000   0.3016
  10.900   1.6030   0.02355   0.01768  -0.1107  0.2257  1.0000  -3.4084   0.0000   0.0000   0.0000   0.3009
  11.000   1.6052   0.02415   0.01825  -0.1098  0.2199  1.0000  -3.4469   0.0000   0.0000   0.0000   0.3001
  11.100   1.6084   0.02469   0.01877  -0.1091  0.2137  1.0000  -3.4881   0.0000   0.0000   0.0000   0.2993
  11.200   1.6110   0.02526   0.01933  -0.1084  0.2078  1.0000  -3.5279   0.0000   0.0000   0.0000   0.2985
  11.300   1.6129   0.02590   0.01994  -0.1075  0.2020  1.0000  -3.5656   0.0000   0.0000   0.0000   0.2977
  11.400   1.6156   0.02648   0.02050  -0.1068  0.1959  1.0000  -3.6061   0.0000   0.0000   0.0000   0.2970
  11.500   1.6179   0.02709   0.02109  -0.1060  0.1902  1.0000  -3.6453   0.0000   0.0000   0.0000   0.2962
  11.600   1.6195   0.02775   0.02172  -0.1052  0.1848  1.0000  -3.6824   0.0000   0.0000   0.0000   0.2954
  11.700   1.6222   0.02835   0.02230  -0.1045  0.1793  1.0000  -3.7230   0.0000   0.0000   0.0000   0.2947
  11.800   1.6243   0.02898   0.02292  -0.1038  0.1743  1.0000  -3.7621   0.0000   0.0000   0.0000   0.2939
  11.900   1.6261   0.02965   0.02357  -0.1030  0.1693  1.0000  -3.8002   0.0000   0.0000   0.0000   0.2932
  12.000   1.6287   0.03027   0.02417  -0.1023  0.1644  1.0000  -3.8407   0.0000   0.0000   0.0000   0.2925
  12.100   1.6302   0.03097   0.02485  -0.1016  0.1599  1.0000  -3.8780   0.0000   0.0000   0.0000   0.2918
  12.200   1.6325   0.03160   0.02548  -0.1009  0.1551  1.0000  -3.9182   0.0000   0.0000   0.0000   0.2911
  12.300   1.6342   0.03229   0.02616  -0.1002  0.1507  1.0000  -3.9564   0.0000   0.0000   0.0000   0.2904
  12.400   1.6360   0.03298   0.02684  -0.0995  0.1462  1.0000  -3.9947   0.0000   0.0000   0.0000   0.2897
  12.500   1.6380   0.03367   0.02751  -0.0988  0.1419  1.0000  -4.0340   0.0000   0.0000   0.0000   0.2890
  12.600   1.6393   0.03441   0.02825  -0.0981  0.1377  1.0000  -4.0711   0.0000   0.0000   0.0000   0.2883
  12.700   1.6415   0.03510   0.02893  -0.0975  0.1335  1.0000  -4.1113   0.0000   0.0000   0.0000   0.2876
  12.800   1.6426   0.03588   0.02970  -0.0968  0.1296  1.0000  -4.1478   0.0000   0.0000   0.0000   0.2869
  12.900   1.6449   0.03658   0.03039  -0.0962  0.1255  1.0000  -4.1884   0.0000   0.0000   0.0000   0.2863
  13.000   1.6461   0.03737   0.03117  -0.0955  0.1218  1.0000  -4.2255   0.0000   0.0000   0.0000   0.2856
  13.100   1.6481   0.03810   0.03189  -0.0950  0.1180  1.0000  -4.2652   0.0000   0.0000   0.0000   0.2850
  13.200   1.6492   0.03891   0.03269  -0.0943  0.1145  1.0000  -4.3020   0.0000   0.0000   0.0000   0.2844
  13.300   1.6509   0.03966   0.03345  -0.0938  0.1109  1.0000  -4.3412   0.0000   0.0000   0.0000   0.2838
  13.400   1.6519   0.04050   0.03428  -0.0931  0.1077  1.0000  -4.3776   0.0000   0.0000   0.0000   0.2831
  13.500   1.6536   0.04129   0.03507  -0.0926  0.1043  1.0000  -4.4166   0.0000   0.0000   0.0000   0.2825
  13.600   1.6544   0.04215   0.03593  -0.0920  0.1013  1.0000  -4.4527   0.0000   0.0000   0.0000   0.2819
  13.700   1.6561   0.04296   0.03673  -0.0915  0.0981  1.0000  -4.4942   0.0000   0.0000   0.0000   0.2813
  13.800   1.6566   0.04387   0.03764  -0.0909  0.0953  1.0000  -4.5317   0.0000   0.0000   0.0000   0.2808
  13.900   1.6585   0.04467   0.03845  -0.0904  0.0923  1.0000  -4.5743   0.0000   0.0000   0.0000   0.2802
  14.000   1.6590   0.04560   0.03937  -0.0899  0.0896  1.0000  -4.6121   0.0000   0.0000   0.0000   0.2796
  14.100   1.6606   0.04644   0.04022  -0.0894  0.0869  1.0000  -4.6536   0.0000   0.0000   0.0000   0.2791
  14.200   1.6613   0.04736   0.04114  -0.0889  0.0843  1.0000  -4.6950   0.0000   0.0000   0.0000   0.2785
  14.300   1.6622   0.04827   0.04206  -0.0884  0.0819  1.0000  -4.7392   0.0000   0.0000   0.0000   0.2780
  14.400   1.6633   0.04917   0.04296  -0.0879  0.0795  1.0000  -4.7849   0.0000   0.0000   0.0000   0.2774
  14.500   1.6633   0.05018   0.04397  -0.0874  0.0773  1.0000  -4.8257   0.0000   0.0000   0.0000   0.2769
  14.600   1.6648   0.05106   0.04486  -0.0870  0.0751  1.0000  -4.8731   0.0000   0.0000   0.0000   0.2764
  14.700   1.6653   0.05204   0.04585  -0.0866  0.0729  1.0000  -4.9165   0.0000   0.0000   0.0000   0.2759
  14.800   1.6653   0.05308   0.04689  -0.0861  0.0711  1.0000  -4.9577   0.0000   0.0000   0.0000   0.2754
  14.900   1.6667   0.05398   0.04782  -0.0858  0.0691  1.0000  -5.0050   0.0000   0.0000   0.0000   0.2749
  15.000   1.6670   0.05501   0.04885  -0.0854  0.0673  1.0000  -5.0477   0.0000   0.0000   0.0000   0.2744
  15.100   1.6667   0.05611   0.04996  -0.0849  0.0657  1.0000  -5.0877   0.0000   0.0000   0.0000   0.2740
  15.200   1.6681   0.05704   0.05091  -0.0846  0.0640  1.0000  -5.1352   0.0000   0.0000   0.0000   0.2735
  15.300   1.6685   0.05808   0.05196  -0.0843  0.0624  1.0000  -5.1786   0.0000   0.0000   0.0000   0.2730
  15.400   1.6681   0.05923   0.05311  -0.0839  0.0610  1.0000  -5.2179   0.0000   0.0000   0.0000   0.2726
  15.500   1.6687   0.06026   0.05417  -0.0836  0.0596  1.0000  -5.2620   0.0000   0.0000   0.0000   0.2722
  15.600   1.6695   0.06127   0.05520  -0.0833  0.0582  1.0000  -5.3073   0.0000   0.0000   0.0000   0.2717
  15.700   1.6693   0.06239   0.05634  -0.0829  0.0569  1.0000  -5.3481   0.0000   0.0000   0.0000   0.2713
  15.800   1.6683   0.06362   0.05757  -0.0826  0.0558  1.0000  -5.3851   0.0000   0.0000   0.0000   0.2709
  15.900   1.6687   0.06469   0.05867  -0.0823  0.0546  1.0000  -5.4286   0.0000   0.0000   0.0000   0.2705
  16.000   1.6692   0.06576   0.05977  -0.0821  0.0534  1.0000  -5.4726   0.0000   0.0000   0.0000   0.2701
  16.100   1.6691   0.06691   0.06094  -0.0818  0.0523  1.0000  -5.5137   0.0000   0.0000   0.0000   0.2697
  16.200   1.6679   0.06819   0.06223  -0.0816  0.0513  1.0000  -5.5502   0.0000   0.0000   0.0000   0.2693
  16.300   1.6666   0.06950   0.06356  -0.0813  0.0504  1.0000  -5.5858   0.0000   0.0000   0.0000   0.2690
  16.400   1.6676   0.07055   0.06464  -0.0811  0.0493  1.0000  -5.6318   0.0000   0.0000   0.0000   0.2686
  16.500   1.6675   0.07173   0.06585  -0.0809  0.0483  1.0000  -5.6733   0.0000   0.0000   0.0000   0.2682
  16.600   1.6668   0.07298   0.06712  -0.0808  0.0473  1.0000  -5.7118   0.0000   0.0000   0.0000   0.2679
  16.700   1.6651   0.07438   0.06853  -0.0806  0.0465  1.0000  -5.7454   0.0000   0.0000   0.0000   0.2676
  16.800   1.6634   0.07579   0.06996  -0.0804  0.0457  1.0000  -5.7785   0.0000   0.0000   0.0000   0.2673
  16.900   1.6641   0.07689   0.07110  -0.0803  0.0447  1.0000  -5.8237   0.0000   0.0000   0.0000   0.2670
  17.000   1.6638   0.07812   0.07237  -0.0802  0.0438  1.0000  -5.8637   0.0000   0.0000   0.0000   0.2667
  17.100   1.6628   0.07944   0.07370  -0.0801  0.0429  1.0000  -5.9008   0.0000   0.0000   0.0000   0.2664
  17.200   1.6608   0.08089   0.07517  -0.0800  0.0422  1.0000  -5.9328   0.0000   0.0000   0.0000   0.2661
  17.300   1.6579   0.08247   0.07677  -0.0799  0.0415  1.0000  -5.9597   0.0000   0.0000   0.0000   0.2659
  17.400   1.6577   0.08372   0.07806  -0.0798  0.0407  1.0000  -5.9999   0.0000   0.0000   0.0000   0.2657
  17.500   1.6575   0.08496   0.07934  -0.0798  0.0399  1.0000  -6.0407   0.0000   0.0000   0.0000   0.2654
  17.600   1.6564   0.08633   0.08074  -0.0797  0.0391  1.0000  -6.0767   0.0000   0.0000   0.0000   0.2651
  17.700   1.6547   0.08781   0.08223  -0.0797  0.0384  1.0000  -6.1093   0.0000   0.0000   0.0000   0.2649
  17.800   1.6520   0.08940   0.08384  -0.0798  0.0378  1.0000  -6.1374   0.0000   0.0000   0.0000   0.2648
  17.900   1.6481   0.09117   0.08563  -0.0798  0.0372  1.0000  -6.1585   0.0000   0.0000   0.0000   0.2647
  18.000   1.6480   0.09246   0.08696  -0.0798  0.0365  1.0000  -6.1984   0.0000   0.0000   0.0000   0.2645
  18.100   1.6473   0.09382   0.08836  -0.0799  0.0358  1.0000  -6.2356   0.0000   0.0000   0.0000   0.2643
  18.200   1.6460   0.09525   0.08983  -0.0800  0.0351  1.0000  -6.2700   0.0000   0.0000   0.0000   0.2641
  18.300   1.6439   0.09682   0.09142  -0.0801  0.0346  1.0000  -6.2998   0.0000   0.0000   0.0000   0.2640
  18.400   1.6412   0.09846   0.09309  -0.0802  0.0340  1.0000  -6.3267   0.0000   0.0000   0.0000   0.2639
  18.500   1.6374   0.10027   0.09491  -0.0804  0.0335  1.0000  -6.3472   0.0000   0.0000   0.0000   0.2638
  18.600   1.6329   0.10217   0.09684  -0.0806  0.0331  1.0000  -6.3631   0.0000   0.0000   0.0000   0.2639
  18.700   1.6325   0.10352   0.09823  -0.0808  0.0325  1.0000  -6.4005   0.0000   0.0000   0.0000   0.2637
  18.800   1.6314   0.10495   0.09971  -0.0809  0.0320  1.0000  -6.4347   0.0000   0.0000   0.0000   0.2636
  18.900   1.6298   0.10647   0.10127  -0.0811  0.0314  1.0000  -6.4660   0.0000   0.0000   0.0000   0.2635
  19.000   1.6276   0.10808   0.10291  -0.0814  0.0309  1.0000  -6.4941   0.0000   0.0000   0.0000   0.2634
  19.100   1.6249   0.10976   0.10461  -0.0816  0.0305  1.0000  -6.5195   0.0000   0.0000   0.0000   0.2634
  19.200   1.6216   0.11156   0.10644  -0.0820  0.0301  1.0000  -6.5408   0.0000   0.0000   0.0000   0.2635
  19.300   1.6175   0.11347   0.10838  -0.0824  0.0297  1.0000  -6.5575   0.0000   0.0000   0.0000   0.2636
  19.400   1.6125   0.11554   0.11047  -0.0828  0.0294  1.0000  -6.5676   0.0000   0.0000   0.0000   0.2638
  19.500   1.6114   0.11703   0.11200  -0.0831  0.0289  1.0000  -6.6001   0.0000   0.0000   0.0000   0.2637
  19.600   1.6102   0.11855   0.11356  -0.0834  0.0285  1.0000  -6.6316   0.0000   0.0000   0.0000   0.2637
  19.700   1.6087   0.12010   0.11516  -0.0838  0.0281  1.0000  -6.6616   0.0000   0.0000   0.0000   0.2637
  19.800   1.6068   0.12173   0.11682  -0.0842  0.0277  1.0000  -6.6890   0.0000   0.0000   0.0000   0.2638
  19.900   1.6048   0.12338   0.11851  -0.0846  0.0273  1.0000  -6.7160   0.0000   0.0000   0.0000   0.2638
  20.000   1.6021   0.12514   0.12029  -0.0851  0.0270  1.0000  -6.7387   0.0000   0.0000   0.0000   0.2640


