xflr5 v6.57

 Calculated polar for: reaf

 1 1 Reynolds number fixed          Mach number fixed         

 xtrf =   1.000 (top)        1.000 (bottom)
 Mach =   0.000     Re =     0.440 e 6     Ncrit =   9.000

  alpha     CL        CD       CDp       Cm    Top Xtr Bot Xtr   Cpmin    Chinge    XCp    
 ------- -------- --------- --------- -------- ------- ------- -------- --------- ---------
  -9.800  -0.2379   0.02409   0.02100  -0.1111  0.8282  0.0304  -3.9169   0.0000   0.0000   0.0000  -0.2434
  -9.700  -0.2347   0.02323   0.02016  -0.1118  0.8265  0.0305  -3.8802   0.0000   0.0000   0.0000  -0.2530
  -9.600  -0.2306   0.02253   0.01946  -0.1125  0.8249  0.0306  -3.8359   0.0000   0.0000   0.0000  -0.2643
  -9.500  -0.2256   0.02201   0.01895  -0.1130  0.8235  0.0308  -3.7819   0.0000   0.0000   0.0000  -0.2776
  -9.400  -0.2193   0.02174   0.01868  -0.1133  0.8222  0.0310  -3.7148   0.0000   0.0000   0.0000  -0.2934
  -9.300  -0.2111   0.02183   0.01877  -0.1131  0.8210  0.0312  -3.6291   0.0000   0.0000   0.0000  -0.3131
  -9.200  -0.2005   0.02240   0.01935  -0.1123  0.8199  0.0315  -3.5192   0.0000   0.0000   0.0000  -0.3381
  -9.100  -0.1858   0.02382   0.02080  -0.1106  0.8183  0.0320  -3.3672   0.0000   0.0000   0.0000  -0.3748
  -9.000  -0.1223   0.03550   0.03252  -0.1024  0.8164  0.0344  -2.6936   0.0000   0.0000   0.0000  -0.6280
  -8.900  -0.1223   0.03413   0.03115  -0.1031  0.8149  0.0345  -2.6901   0.0000   0.0000   0.0000  -0.6337
  -8.800  -0.1218   0.03284   0.02987  -0.1039  0.8136  0.0346  -2.6823   0.0000   0.0000   0.0000  -0.6426
  -8.700  -0.1207   0.03168   0.02870  -0.1046  0.8124  0.0348  -2.6679   0.0000   0.0000   0.0000  -0.6565
  -8.600  -0.1188   0.03064   0.02766  -0.1053  0.8113  0.0350  -2.6474   0.0000   0.0000   0.0000  -0.6757
  -8.500  -0.1157   0.02984   0.02684  -0.1059  0.8102  0.0353  -2.6150   0.0000   0.0000   0.0000  -0.7050
  -8.400  -0.1098   0.02957   0.02658  -0.1062  0.8085  0.0358  -2.5549   0.0000   0.0000   0.0000  -0.7587
  -8.300  -0.1808   0.05638   0.05325  -0.1091  0.8201  0.0356  -2.8216   0.0000   0.0000   0.0000  -0.3877
  -8.200  -0.1728   0.05518   0.05205  -0.1123  0.8185  0.0393  -2.7635   0.0000   0.0000   0.0000  -0.4353
  -8.100  -0.1661   0.05396   0.05083  -0.1145  0.8167  0.0397  -2.7302   0.0000   0.0000   0.0000  -0.4753
  -8.000  -0.1588   0.05290   0.04976  -0.1165  0.8152  0.0402  -2.6892   0.0000   0.0000   0.0000  -0.5205
  -7.800  -0.2107   0.01993   0.01378  -0.1409  0.8108  0.0337  -4.1891   0.0000   0.0000   0.0000  -0.4504
  -7.700  -0.2004   0.01948   0.01321  -0.1410  0.8096  0.0340  -4.1357   0.0000   0.0000   0.0000  -0.4862
  -7.600  -0.1906   0.01889   0.01263  -0.1411  0.8080  0.0343  -4.0760   0.0000   0.0000   0.0000  -0.5241
  -7.500  -0.1801   0.01857   0.01230  -0.1412  0.8066  0.0347  -4.0057   0.0000   0.0000   0.0000  -0.5688
  -7.400  -0.1695   0.01832   0.01204  -0.1413  0.8053  0.0350  -3.9336   0.0000   0.0000   0.0000  -0.6201
  -7.300  -0.1587   0.01810   0.01181  -0.1413  0.8041  0.0354  -3.8613   0.0000   0.0000   0.0000  -0.6792
  -7.200  -0.1478   0.01789   0.01156  -0.1414  0.8030  0.0359  -3.7900   0.0000   0.0000   0.0000  -0.7474
  -7.100  -0.1368   0.01768   0.01131  -0.1415  0.8021  0.0363  -3.7202   0.0000   0.0000   0.0000  -0.8270
  -7.000  -0.1258   0.01745   0.01101  -0.1415  0.8011  0.0369  -3.6533   0.0000   0.0000   0.0000  -0.9210
  -6.900  -0.1150   0.01721   0.01071  -0.1416  0.7998  0.0374  -3.5900   0.0000   0.0000   0.0000  -1.0309
  -6.800  -0.1040   0.01698   0.01041  -0.1416  0.7983  0.0379  -3.5280   0.0000   0.0000   0.0000  -1.1647
  -6.700  -0.0929   0.01681   0.01014  -0.1416  0.7969  0.0383  -3.4650   0.0000   0.0000   0.0000  -1.3330
  -6.600  -0.0827   0.01630   0.00966  -0.1417  0.7956  0.0388  -3.4056   0.0000   0.0000   0.0000  -1.5286
  -6.500  -0.0719   0.01604   0.00940  -0.1417  0.7944  0.0393  -3.3371   0.0000   0.0000   0.0000  -1.7954
  -6.400  -0.0609   0.01584   0.00920  -0.1418  0.7934  0.0397  -3.2675   0.0000   0.0000   0.0000  -2.1654
  -6.300  -0.0497   0.01566   0.00900  -0.1418  0.7924  0.0403  -3.1989   0.0000   0.0000   0.0000  -2.7065
  -6.200  -0.0385   0.01548   0.00878  -0.1419  0.7915  0.0409  -3.1373   0.0000   0.0000   0.0000  -3.5684
  -6.100  -0.0275   0.01530   0.00858  -0.1419  0.7900  0.0415  -3.0794   0.0000   0.0000   0.0000  -5.0807
  -6.000  -0.0165   0.01513   0.00837  -0.1419  0.7885  0.0421  -3.0226   0.0000   0.0000   0.0000  -8.6240
  -5.900  -0.0054   0.01497   0.00815  -0.1420  0.7871  0.0427  -2.9660   0.0000   0.0000   0.0000  -27.1024
  -5.800   0.0056   0.01472   0.00787  -0.1420  0.7859  0.0434  -2.9105   0.0000   0.0000   0.0000  26.5959
  -5.700   0.0164   0.01447   0.00766  -0.1421  0.7847  0.0441  -2.8493   0.0000   0.0000   0.0000   9.1759
  -5.600   0.0276   0.01433   0.00752  -0.1421  0.7837  0.0448  -2.7859   0.0000   0.0000   0.0000   5.5547
  -5.500   0.0390   0.01421   0.00737  -0.1422  0.7827  0.0457  -2.7239   0.0000   0.0000   0.0000   4.0093
  -5.400   0.0504   0.01408   0.00721  -0.1423  0.7818  0.0466  -2.6640   0.0000   0.0000   0.0000   3.1558
  -5.300   0.0615   0.01396   0.00706  -0.1423  0.7803  0.0475  -2.6069   0.0000   0.0000   0.0000   2.6312
  -5.200   0.0726   0.01381   0.00688  -0.1423  0.7788  0.0482  -2.5513   0.0000   0.0000   0.0000   2.2668
  -5.100   0.0834   0.01357   0.00667  -0.1424  0.7775  0.0491  -2.4942   0.0000   0.0000   0.0000   2.0057
  -5.000   0.0945   0.01342   0.00654  -0.1424  0.7762  0.0500  -2.4343   0.0000   0.0000   0.0000   1.7982
  -4.900   0.1058   0.01330   0.00640  -0.1425  0.7750  0.0509  -2.3753   0.0000   0.0000   0.0000   1.6326
  -4.800   0.1173   0.01318   0.00626  -0.1425  0.7739  0.0520  -2.3175   0.0000   0.0000   0.0000   1.4977
  -4.700   0.1288   0.01309   0.00611  -0.1426  0.7729  0.0531  -2.2642   0.0000   0.0000   0.0000   1.3852
  -4.600   0.1401   0.01289   0.00592  -0.1427  0.7720  0.0543  -2.2128   0.0000   0.0000   0.0000   1.2941
  -4.500   0.1510   0.01277   0.00583  -0.1427  0.7705  0.0555  -2.1594   0.0000   0.0000   0.0000   1.2181
  -4.400   0.1622   0.01268   0.00574  -0.1427  0.7689  0.0569  -2.1069   0.0000   0.0000   0.0000   1.1512
  -4.300   0.1735   0.01260   0.00564  -0.1428  0.7675  0.0584  -2.0558   0.0000   0.0000   0.0000   1.0921
  -4.200   0.1847   0.01244   0.00548  -0.1428  0.7662  0.0598  -2.0056   0.0000   0.0000   0.0000   1.0409
  -4.100   0.1960   0.01232   0.00537  -0.1429  0.7650  0.0613  -1.9530   0.0000   0.0000   0.0000   0.9951
  -4.000   0.2076   0.01222   0.00526  -0.1430  0.7640  0.0630  -1.9013   0.0000   0.0000   0.0000   0.9537
  -3.900   0.2193   0.01215   0.00515  -0.1431  0.7630  0.0648  -1.8504   0.0000   0.0000   0.0000   0.9161
  -3.800   0.2307   0.01200   0.00501  -0.1432  0.7620  0.0668  -1.7991   0.0000   0.0000   0.0000   0.8833
  -3.700   0.2417   0.01192   0.00496  -0.1432  0.7604  0.0690  -1.7487   0.0000   0.0000   0.0000   0.8541
  -3.600   0.2529   0.01184   0.00487  -0.1432  0.7588  0.0714  -1.6996   0.0000   0.0000   0.0000   0.8270
  -3.500   0.2642   0.01172   0.00478  -0.1433  0.7574  0.0738  -1.6493   0.0000   0.0000   0.0000   0.8025
  -3.400   0.2756   0.01164   0.00469  -0.1434  0.7561  0.0768  -1.5997   0.0000   0.0000   0.0000   0.7794
  -3.300   0.2871   0.01152   0.00459  -0.1435  0.7549  0.0799  -1.5503   0.0000   0.0000   0.0000   0.7583
  -3.200   0.2987   0.01145   0.00450  -0.1435  0.7538  0.0837  -1.5006   0.0000   0.0000   0.0000   0.7385
  -3.100   0.3103   0.01134   0.00441  -0.1437  0.7528  0.0878  -1.4546   0.0000   0.0000   0.0000   0.7203
  -3.000   0.3218   0.01126   0.00433  -0.1438  0.7516  0.0927  -1.4101   0.0000   0.0000   0.0000   0.7035
  -2.900   0.3329   0.01119   0.00428  -0.1438  0.7499  0.0984  -1.3665   0.0000   0.0000   0.0000   0.6882
  -2.800   0.3441   0.01109   0.00422  -0.1438  0.7483  0.1049  -1.3226   0.0000   0.0000   0.0000   0.6738
  -2.700   0.3555   0.01099   0.00416  -0.1439  0.7469  0.1126  -1.2786   0.0000   0.0000   0.0000   0.6603
  -2.600   0.3669   0.01090   0.00410  -0.1440  0.7456  0.1218  -1.2346   0.0000   0.0000   0.0000   0.6474
  -2.500   0.3785   0.01080   0.00404  -0.1441  0.7443  0.1323  -1.1904   0.0000   0.0000   0.0000   0.6353
  -2.400   0.3901   0.01071   0.00398  -0.1442  0.7432  0.1443  -1.1462   0.0000   0.0000   0.0000   0.6239
  -2.200   0.4129   0.01056   0.00391  -0.1444  0.7405  0.1706  -1.0597   0.0000   0.0000   0.0000   0.6033
  -2.100   0.4240   0.01050   0.00389  -0.1445  0.7388  0.1848  -1.0172   0.0000   0.0000   0.0000   0.5939
  -2.000   0.4353   0.01042   0.00387  -0.1446  0.7373  0.1991  -0.9756   0.0000   0.0000   0.0000   0.5849
  -1.900   0.4467   0.01034   0.00383  -0.1446  0.7359  0.2144  -0.9363   0.0000   0.0000   0.0000   0.5763
  -1.800   0.4583   0.01027   0.00380  -0.1448  0.7346  0.2304  -0.8971   0.0000   0.0000   0.0000   0.5681
  -1.700   0.4699   0.01020   0.00376  -0.1449  0.7334  0.2479  -0.8580   0.0000   0.0000   0.0000   0.5603
  -1.600   0.4817   0.01013   0.00372  -0.1450  0.7323  0.2656  -0.8211   0.0000   0.0000   0.0000   0.5528
  -1.500   0.4928   0.01006   0.00372  -0.1451  0.7307  0.2842  -0.8284   0.0000   0.0000   0.0000   0.5459
  -1.400   0.5038   0.00999   0.00373  -0.1451  0.7289  0.3045  -0.8356   0.0000   0.0000   0.0000   0.5393
  -1.300   0.5151   0.00991   0.00372  -0.1452  0.7273  0.3266  -0.8430   0.0000   0.0000   0.0000   0.5329
  -1.200   0.5264   0.00984   0.00370  -0.1453  0.7258  0.3499  -0.8505   0.0000   0.0000   0.0000   0.5268
  -1.100   0.5379   0.00975   0.00368  -0.1454  0.7244  0.3748  -0.8581   0.0000   0.0000   0.0000   0.5209
  -1.000   0.5495   0.00967   0.00366  -0.1455  0.7232  0.4014  -0.8659   0.0000   0.0000   0.0000   0.5152
  -0.900   0.5611   0.00959   0.00364  -0.1456  0.7221  0.4297  -0.8739   0.0000   0.0000   0.0000   0.5097
  -0.800   0.5720   0.00952   0.00367  -0.1456  0.7203  0.4578  -0.8815   0.0000   0.0000   0.0000   0.5046
  -0.700   0.5829   0.00945   0.00369  -0.1456  0.7184  0.4874  -0.8892   0.0000   0.0000   0.0000   0.4996
  -0.600   0.5940   0.00937   0.00370  -0.1456  0.7167  0.5173  -0.8970   0.0000   0.0000   0.0000   0.4948
  -0.500   0.6052   0.00930   0.00371  -0.1457  0.7151  0.5473  -0.9049   0.0000   0.0000   0.0000   0.4901
  -0.400   0.6164   0.00923   0.00370  -0.1457  0.7137  0.5766  -0.9130   0.0000   0.0000   0.0000   0.4855
  -0.300   0.6278   0.00916   0.00370  -0.1457  0.7125  0.6053  -0.9212   0.0000   0.0000   0.0000   0.4811
  -0.200   0.6388   0.00911   0.00372  -0.1456  0.7111  0.6333  -0.9293   0.0000   0.0000   0.0000   0.4768
  -0.100   0.6492   0.00907   0.00377  -0.1455  0.7091  0.6604  -0.9370   0.0000   0.0000   0.0000   0.4728
   0.000   0.6599   0.00903   0.00380  -0.1453  0.7072  0.6850  -0.9451   0.0000   0.0000   0.0000   0.4688
   0.100   0.6707   0.00899   0.00381  -0.1452  0.7055  0.7081  -0.9535   0.0000   0.0000   0.0000   0.4649
   0.200   0.6816   0.00895   0.00381  -0.1451  0.7040  0.7295  -0.9623   0.0000   0.0000   0.0000   0.4611
   0.300   0.6925   0.00891   0.00381  -0.1449  0.7026  0.7494  -0.9710   0.0000   0.0000   0.0000   0.4574
   0.400   0.7035   0.00889   0.00380  -0.1448  0.7014  0.7689  -0.9798   0.0000   0.0000   0.0000   0.4538
   0.500   0.7134   0.00886   0.00385  -0.1445  0.6992  0.7871  -0.9879   0.0000   0.0000   0.0000   0.4503
   0.600   0.7234   0.00883   0.00387  -0.1442  0.6972  0.8048  -0.9960   0.0000   0.0000   0.0000   0.4469
   0.700   0.7335   0.00880   0.00388  -0.1439  0.6954  0.8230  -1.0045   0.0000   0.0000   0.0000   0.4436
   0.800   0.7436   0.00876   0.00387  -0.1435  0.6937  0.8414  -1.0131   0.0000   0.0000   0.0000   0.4404
   0.900   0.7534   0.00872   0.00386  -0.1431  0.6922  0.8600  -1.0218   0.0000   0.0000   0.0000   0.4371
   1.000   0.7629   0.00868   0.00384  -0.1426  0.6908  0.8802  -1.0303   0.0000   0.0000   0.0000   0.4340
   1.100   0.7712   0.00863   0.00386  -0.1419  0.6885  0.9035  -1.0380   0.0000   0.0000   0.0000   0.4309
   1.200   0.7810   0.00858   0.00385  -0.1415  0.6864  0.9322  -1.0468   0.0000   0.0000   0.0000   0.4279
   1.300   0.7981   0.00852   0.00380  -0.1426  0.6845  0.9755  -1.0602   0.0000   0.0000   0.0000   0.4253
   1.400   0.8116   0.00851   0.00376  -0.1432  0.6827  1.0000  -1.0718   0.0000   0.0000   0.0000   0.4228
   1.500   0.8236   0.00854   0.00374  -0.1433  0.6812  1.0000  -1.0825   0.0000   0.0000   0.0000   0.4203
   1.600   0.8349   0.00856   0.00376  -0.1434  0.6792  1.0000  -1.0928   0.0000   0.0000   0.0000   0.4179
   1.700   0.8460   0.00859   0.00379  -0.1434  0.6768  1.0000  -1.1029   0.0000   0.0000   0.0000   0.4156
   1.800   0.8574   0.00861   0.00379  -0.1435  0.6747  1.0000  -1.1133   0.0000   0.0000   0.0000   0.4133
   1.900   0.8690   0.00863   0.00379  -0.1436  0.6727  1.0000  -1.1244   0.0000   0.0000   0.0000   0.4110
   2.000   0.8807   0.00865   0.00377  -0.1437  0.6710  1.0000  -1.1357   0.0000   0.0000   0.0000   0.4088
   2.100   0.8921   0.00868   0.00379  -0.1438  0.6690  1.0000  -1.1467   0.0000   0.0000   0.0000   0.4067
   2.200   0.9030   0.00871   0.00382  -0.1438  0.6664  1.0000  -1.1573   0.0000   0.0000   0.0000   0.4046
   2.300   0.9142   0.00873   0.00383  -0.1438  0.6641  1.0000  -1.1684   0.0000   0.0000   0.0000   0.4026
   2.400   0.9256   0.00875   0.00383  -0.1439  0.6620  1.0000  -1.1802   0.0000   0.0000   0.0000   0.4005
   2.500   0.9373   0.00878   0.00382  -0.1440  0.6602  1.0000  -1.1922   0.0000   0.0000   0.0000   0.3986
   2.600   0.9483   0.00881   0.00386  -0.1440  0.6578  1.0000  -1.2039   0.0000   0.0000   0.0000   0.3967
   2.700   0.9592   0.00884   0.00389  -0.1440  0.6551  1.0000  -1.2157   0.0000   0.0000   0.0000   0.3948
   2.800   0.9704   0.00887   0.00390  -0.1440  0.6527  1.0000  -1.2277   0.0000   0.0000   0.0000   0.3930
   2.900   0.9817   0.00890   0.00390  -0.1441  0.6506  1.0000  -1.2399   0.0000   0.0000   0.0000   0.3912
   3.000   0.9932   0.00893   0.00391  -0.1441  0.6486  1.0000  -1.2524   0.0000   0.0000   0.0000   0.3894
   3.100   1.0038   0.00896   0.00396  -0.1441  0.6456  1.0000  -1.2647   0.0000   0.0000   0.0000   0.3877
   3.200   1.0148   0.00900   0.00399  -0.1441  0.6429  1.0000  -1.2773   0.0000   0.0000   0.0000   0.3860
   3.300   1.0259   0.00903   0.00400  -0.1441  0.6405  1.0000  -1.2901   0.0000   0.0000   0.0000   0.3843
   3.400   1.0374   0.00906   0.00400  -0.1441  0.6385  1.0000  -1.3034   0.0000   0.0000   0.0000   0.3827
   3.500   1.0479   0.00910   0.00406  -0.1441  0.6354  1.0000  -1.3161   0.0000   0.0000   0.0000   0.3811
   3.600   1.0587   0.00913   0.00409  -0.1440  0.6324  1.0000  -1.3294   0.0000   0.0000   0.0000   0.3795
   3.700   1.0697   0.00917   0.00411  -0.1440  0.6299  1.0000  -1.3431   0.0000   0.0000   0.0000   0.3780
   3.800   1.0810   0.00921   0.00412  -0.1441  0.6276  1.0000  -1.3574   0.0000   0.0000   0.0000   0.3765
   3.900   1.0914   0.00925   0.00418  -0.1440  0.6242  1.0000  -1.3715   0.0000   0.0000   0.0000   0.3750
   4.000   1.1021   0.00929   0.00422  -0.1439  0.6212  1.0000  -1.3862   0.0000   0.0000   0.0000   0.3735
   4.100   1.1130   0.00934   0.00424  -0.1439  0.6185  1.0000  -1.4014   0.0000   0.0000   0.0000   0.3721
   4.200   1.1238   0.00938   0.00428  -0.1438  0.6156  1.0000  -1.4167   0.0000   0.0000   0.0000   0.3706
   4.300   1.1343   0.00943   0.00434  -0.1438  0.6121  1.0000  -1.4319   0.0000   0.0000   0.0000   0.3692
   4.400   1.1450   0.00947   0.00437  -0.1437  0.6090  1.0000  -1.4476   0.0000   0.0000   0.0000   0.3679
   4.500   1.1558   0.00953   0.00439  -0.1437  0.6063  1.0000  -1.4637   0.0000   0.0000   0.0000   0.3665
   4.600   1.1661   0.00957   0.00446  -0.1435  0.6024  1.0000  -1.4794   0.0000   0.0000   0.0000   0.3652
   4.700   1.1766   0.00962   0.00451  -0.1434  0.5989  1.0000  -1.4956   0.0000   0.0000   0.0000   0.3639
   4.800   1.1872   0.00969   0.00454  -0.1434  0.5959  1.0000  -1.5120   0.0000   0.0000   0.0000   0.3626
   4.900   1.1974   0.00974   0.00461  -0.1432  0.5919  1.0000  -1.5282   0.0000   0.0000   0.0000   0.3613
   5.000   1.2077   0.00979   0.00466  -0.1431  0.5881  1.0000  -1.5450   0.0000   0.0000   0.0000   0.3600
   5.200   1.2282   0.00992   0.00477  -0.1429  0.5805  1.0000  -1.5803   0.0000   0.0000   0.0000   0.3576
   5.300   1.2384   0.00999   0.00483  -0.1427  0.5766  1.0000  -1.5989   0.0000   0.0000   0.0000   0.3563
   5.400   1.2485   0.01006   0.00488  -0.1426  0.5730  1.0000  -1.6181   0.0000   0.0000   0.0000   0.3551
   5.500   1.2586   0.01013   0.00496  -0.1424  0.5686  1.0000  -1.6375   0.0000   0.0000   0.0000   0.3540
   5.600   1.2685   0.01021   0.00502  -0.1422  0.5646  1.0000  -1.6573   0.0000   0.0000   0.0000   0.3528
   5.700   1.2785   0.01028   0.00510  -0.1421  0.5605  1.0000  -1.6771   0.0000   0.0000   0.0000   0.3516
   5.800   1.2883   0.01036   0.00518  -0.1419  0.5560  1.0000  -1.6972   0.0000   0.0000   0.0000   0.3505
   5.900   1.2980   0.01046   0.00524  -0.1416  0.5521  1.0000  -1.7177   0.0000   0.0000   0.0000   0.3494
   6.000   1.3077   0.01053   0.00533  -0.1414  0.5473  1.0000  -1.7381   0.0000   0.0000   0.0000   0.3482
   6.100   1.3172   0.01063   0.00541  -0.1412  0.5428  1.0000  -1.7591   0.0000   0.0000   0.0000   0.3471
   6.200   1.3267   0.01072   0.00550  -0.1409  0.5380  1.0000  -1.7806   0.0000   0.0000   0.0000   0.3460
   6.300   1.3359   0.01082   0.00559  -0.1406  0.5330  1.0000  -1.8047   0.0000   0.0000   0.0000   0.3449
   6.400   1.3451   0.01093   0.00568  -0.1403  0.5280  1.0000  -1.8302   0.0000   0.0000   0.0000   0.3438
   6.500   1.3542   0.01103   0.00578  -0.1400  0.5226  1.0000  -1.8556   0.0000   0.0000   0.0000   0.3427
   6.600   1.3631   0.01115   0.00588  -0.1397  0.5175  1.0000  -1.8817   0.0000   0.0000   0.0000   0.3417
   6.700   1.3720   0.01127   0.00599  -0.1393  0.5120  1.0000  -1.9091   0.0000   0.0000   0.0000   0.3406
   6.800   1.3806   0.01139   0.00610  -0.1390  0.5068  1.0000  -1.9377   0.0000   0.0000   0.0000   0.3395
   6.900   1.3892   0.01152   0.00622  -0.1386  0.5011  1.0000  -1.9668   0.0000   0.0000   0.0000   0.3385
   7.000   1.3976   0.01166   0.00634  -0.1382  0.4958  1.0000  -1.9966   0.0000   0.0000   0.0000   0.3374
   7.100   1.4060   0.01179   0.00646  -0.1377  0.4900  1.0000  -2.0265   0.0000   0.0000   0.0000   0.3364
   7.200   1.4140   0.01194   0.00659  -0.1373  0.4846  1.0000  -2.0561   0.0000   0.0000   0.0000   0.3353
   7.300   1.4220   0.01208   0.00673  -0.1368  0.4787  1.0000  -2.0857   0.0000   0.0000   0.0000   0.3343
   7.400   1.4298   0.01224   0.00687  -0.1363  0.4729  1.0000  -2.1164   0.0000   0.0000   0.0000   0.3333
   7.500   1.4371   0.01241   0.00702  -0.1357  0.4669  1.0000  -2.1472   0.0000   0.0000   0.0000   0.3322
   7.600   1.4445   0.01258   0.00717  -0.1351  0.4606  1.0000  -2.1791   0.0000   0.0000   0.0000   0.3312
   7.800   1.4576   0.01295   0.00751  -0.1337  0.4475  1.0000  -2.2403   0.0000   0.0000   0.0000   0.3290
   7.900   1.4630   0.01315   0.00768  -0.1328  0.4411  1.0000  -2.2692   0.0000   0.0000   0.0000   0.3279
   8.000   1.4685   0.01336   0.00787  -0.1319  0.4344  1.0000  -2.2983   0.0000   0.0000   0.0000   0.3268
   8.100   1.4743   0.01357   0.00807  -0.1311  0.4277  1.0000  -2.3293   0.0000   0.0000   0.0000   0.3257
   8.200   1.4792   0.01383   0.00829  -0.1301  0.4215  1.0000  -2.3589   0.0000   0.0000   0.0000   0.3246
   8.300   1.4852   0.01405   0.00850  -0.1294  0.4149  1.0000  -2.3906   0.0000   0.0000   0.0000   0.3236
   8.400   1.4903   0.01430   0.00874  -0.1285  0.4088  1.0000  -2.4208   0.0000   0.0000   0.0000   0.3226
   8.500   1.4955   0.01456   0.00898  -0.1277  0.4024  1.0000  -2.4513   0.0000   0.0000   0.0000   0.3215
   8.600   1.5007   0.01483   0.00923  -0.1268  0.3960  1.0000  -2.4819   0.0000   0.0000   0.0000   0.3205
   8.800   1.5103   0.01542   0.00978  -0.1251  0.3832  1.0000  -2.5478   0.0000   0.0000   0.0000   0.3185
   8.900   1.5147   0.01575   0.01009  -0.1243  0.3770  1.0000  -2.5864   0.0000   0.0000   0.0000   0.3175
   9.000   1.5193   0.01607   0.01039  -0.1234  0.3705  1.0000  -2.6258   0.0000   0.0000   0.0000   0.3166
   9.100   1.5241   0.01640   0.01071  -0.1226  0.3642  1.0000  -2.6656   0.0000   0.0000   0.0000   0.3156
   9.200   1.5279   0.01678   0.01107  -0.1217  0.3582  1.0000  -2.7033   0.0000   0.0000   0.0000   0.3146
   9.300   1.5329   0.01711   0.01139  -0.1210  0.3517  1.0000  -2.7443   0.0000   0.0000   0.0000   0.3137
   9.400   1.5369   0.01750   0.01175  -0.1202  0.3457  1.0000  -2.7827   0.0000   0.0000   0.0000   0.3128
   9.500   1.5412   0.01788   0.01212  -0.1194  0.3394  1.0000  -2.8223   0.0000   0.0000   0.0000   0.3119
   9.600   1.5455   0.01827   0.01249  -0.1186  0.3333  1.0000  -2.8618   0.0000   0.0000   0.0000   0.3110
   9.700   1.5489   0.01871   0.01291  -0.1178  0.3272  1.0000  -2.8992   0.0000   0.0000   0.0000   0.3101
   9.800   1.5534   0.01910   0.01329  -0.1171  0.3209  1.0000  -2.9397   0.0000   0.0000   0.0000   0.3092
   9.900   1.5569   0.01955   0.01373  -0.1162  0.3150  1.0000  -2.9775   0.0000   0.0000   0.0000   0.3084
  10.000   1.5607   0.01999   0.01415  -0.1155  0.3087  1.0000  -3.0165   0.0000   0.0000   0.0000   0.3075
  10.100   1.5645   0.02044   0.01459  -0.1147  0.3026  1.0000  -3.0554   0.0000   0.0000   0.0000   0.3067
  10.300   1.5714   0.02140   0.01551  -0.1132  0.2904  1.0000  -3.1321   0.0000   0.0000   0.0000   0.3050
  10.400   1.5745   0.02191   0.01600  -0.1124  0.2847  1.0000  -3.1696   0.0000   0.0000   0.0000   0.3041
  10.500   1.5778   0.02241   0.01649  -0.1116  0.2787  1.0000  -3.2079   0.0000   0.0000   0.0000   0.3033
  10.600   1.5812   0.02291   0.01698  -0.1109  0.2728  1.0000  -3.2464   0.0000   0.0000   0.0000   0.3025
  10.800   1.5872   0.02398   0.01801  -0.1093  0.2611  1.0000  -3.3223   0.0000   0.0000   0.0000   0.3009
  10.900   1.5897   0.02455   0.01856  -0.1085  0.2557  1.0000  -3.3611   0.0000   0.0000   0.0000   0.3001
  11.000   1.5926   0.02511   0.01910  -0.1078  0.2498  1.0000  -3.4011   0.0000   0.0000   0.0000   0.2993
  11.100   1.5955   0.02567   0.01965  -0.1071  0.2442  1.0000  -3.4413   0.0000   0.0000   0.0000   0.2985
  11.300   1.6003   0.02686   0.02082  -0.1055  0.2326  1.0000  -3.5192   0.0000   0.0000   0.0000   0.2970
  11.400   1.6023   0.02749   0.02143  -0.1048  0.2270  1.0000  -3.5570   0.0000   0.0000   0.0000   0.2962
  11.500   1.6041   0.02815   0.02206  -0.1040  0.2212  1.0000  -3.5943   0.0000   0.0000   0.0000   0.2955
  11.600   1.6064   0.02877   0.02267  -0.1032  0.2152  1.0000  -3.6333   0.0000   0.0000   0.0000   0.2947
  11.700   1.6079   0.02946   0.02334  -0.1024  0.2096  1.0000  -3.6698   0.0000   0.0000   0.0000   0.2940
  11.800   1.6095   0.03014   0.02400  -0.1017  0.2037  1.0000  -3.7069   0.0000   0.0000   0.0000   0.2932
  11.900   1.6114   0.03081   0.02465  -0.1010  0.1979  1.0000  -3.7450   0.0000   0.0000   0.0000   0.2925
  12.000   1.6125   0.03154   0.02536  -0.1002  0.1925  1.0000  -3.7806   0.0000   0.0000   0.0000   0.2918
  12.100   1.6139   0.03225   0.02605  -0.0994  0.1869  1.0000  -3.8174   0.0000   0.0000   0.0000   0.2911
  12.200   1.6156   0.03295   0.02674  -0.0987  0.1816  1.0000  -3.8549   0.0000   0.0000   0.0000   0.2903
  12.300   1.6162   0.03373   0.02750  -0.0979  0.1766  1.0000  -3.8892   0.0000   0.0000   0.0000   0.2896
  12.400   1.6183   0.03442   0.02819  -0.0973  0.1713  1.0000  -3.9283   0.0000   0.0000   0.0000   0.2890
  12.500   1.6195   0.03518   0.02894  -0.0966  0.1667  1.0000  -3.9646   0.0000   0.0000   0.0000   0.2883
  12.600   1.6208   0.03594   0.02969  -0.0959  0.1619  1.0000  -4.0014   0.0000   0.0000   0.0000   0.2876
  12.700   1.6225   0.03669   0.03042  -0.0953  0.1573  1.0000  -4.0393   0.0000   0.0000   0.0000   0.2869
  12.800   1.6232   0.03752   0.03124  -0.0946  0.1530  1.0000  -4.0742   0.0000   0.0000   0.0000   0.2863
  12.900   1.6251   0.03825   0.03197  -0.0940  0.1484  1.0000  -4.1131   0.0000   0.0000   0.0000   0.2856
  13.000   1.6256   0.03912   0.03282  -0.0933  0.1443  1.0000  -4.1471   0.0000   0.0000   0.0000   0.2850
  13.100   1.6273   0.03988   0.03358  -0.0928  0.1398  1.0000  -4.1856   0.0000   0.0000   0.0000   0.2844
  13.200   1.6281   0.04074   0.03443  -0.0922  0.1358  1.0000  -4.2206   0.0000   0.0000   0.0000   0.2838
  13.300   1.6293   0.04157   0.03526  -0.0916  0.1315  1.0000  -4.2573   0.0000   0.0000   0.0000   0.2832
  13.400   1.6302   0.04243   0.03611  -0.0910  0.1276  1.0000  -4.2933   0.0000   0.0000   0.0000   0.2826
  13.500   1.6309   0.04332   0.03699  -0.0904  0.1237  1.0000  -4.3284   0.0000   0.0000   0.0000   0.2820
  13.600   1.6321   0.04418   0.03786  -0.0899  0.1199  1.0000  -4.3649   0.0000   0.0000   0.0000   0.2814
  13.700   1.6325   0.04512   0.03879  -0.0893  0.1163  1.0000  -4.3990   0.0000   0.0000   0.0000   0.2808
  13.800   1.6336   0.04600   0.03967  -0.0888  0.1127  1.0000  -4.4380   0.0000   0.0000   0.0000   0.2802
  13.900   1.6338   0.04697   0.04063  -0.0883  0.1094  1.0000  -4.4740   0.0000   0.0000   0.0000   0.2797
  14.000   1.6348   0.04787   0.04154  -0.0878  0.1061  1.0000  -4.5125   0.0000   0.0000   0.0000   0.2791
  14.100   1.6350   0.04885   0.04251  -0.0873  0.1029  1.0000  -4.5485   0.0000   0.0000   0.0000   0.2786
  14.200   1.6356   0.04980   0.04347  -0.0868  0.1000  1.0000  -4.5857   0.0000   0.0000   0.0000   0.2781
  14.300   1.6360   0.05079   0.04446  -0.0863  0.0970  1.0000  -4.6222   0.0000   0.0000   0.0000   0.2775
  14.400   1.6361   0.05181   0.04548  -0.0859  0.0944  1.0000  -4.6576   0.0000   0.0000   0.0000   0.2770
  14.500   1.6368   0.05278   0.04646  -0.0854  0.0916  1.0000  -4.7004   0.0000   0.0000   0.0000   0.2765
  14.600   1.6361   0.05390   0.04757  -0.0850  0.0892  1.0000  -4.7377   0.0000   0.0000   0.0000   0.2760
  14.700   1.6372   0.05485   0.04854  -0.0846  0.0866  1.0000  -4.7824   0.0000   0.0000   0.0000   0.2756
  14.800   1.6371   0.05593   0.04962  -0.0842  0.0842  1.0000  -4.8223   0.0000   0.0000   0.0000   0.2751
  14.900   1.6369   0.05703   0.05074  -0.0838  0.0821  1.0000  -4.8617   0.0000   0.0000   0.0000   0.2746
  15.000   1.6376   0.05805   0.05177  -0.0834  0.0798  1.0000  -4.9046   0.0000   0.0000   0.0000   0.2742
  15.100   1.6370   0.05920   0.05293  -0.0831  0.0778  1.0000  -4.9423   0.0000   0.0000   0.0000   0.2737
  15.200   1.6370   0.06031   0.05405  -0.0827  0.0759  1.0000  -4.9825   0.0000   0.0000   0.0000   0.2733
  15.300   1.6373   0.06137   0.05513  -0.0824  0.0739  1.0000  -5.0242   0.0000   0.0000   0.0000   0.2728
  15.400   1.6363   0.06258   0.05635  -0.0821  0.0722  1.0000  -5.0606   0.0000   0.0000   0.0000   0.2724
  15.500   1.6358   0.06375   0.05754  -0.0817  0.0705  1.0000  -5.0986   0.0000   0.0000   0.0000   0.2720
  15.600   1.6363   0.06483   0.05864  -0.0815  0.0687  1.0000  -5.1409   0.0000   0.0000   0.0000   0.2716
  15.700   1.6354   0.06607   0.05988  -0.0812  0.0672  1.0000  -5.1776   0.0000   0.0000   0.0000   0.2712
  15.900   1.6343   0.06849   0.06235  -0.0807  0.0643  1.0000  -5.2532   0.0000   0.0000   0.0000   0.2705
  16.000   1.6340   0.06968   0.06356  -0.0805  0.0628  1.0000  -5.2925   0.0000   0.0000   0.0000   0.2701
  16.100   1.6327   0.07101   0.06490  -0.0802  0.0615  1.0000  -5.3269   0.0000   0.0000   0.0000   0.2698
  16.200   1.6306   0.07244   0.06634  -0.0800  0.0604  1.0000  -5.3575   0.0000   0.0000   0.0000   0.2695
  16.300   1.6314   0.07353   0.06747  -0.0799  0.0590  1.0000  -5.4013   0.0000   0.0000   0.0000   0.2691
  16.400   1.6308   0.07479   0.06876  -0.0797  0.0577  1.0000  -5.4391   0.0000   0.0000   0.0000   0.2688
  16.500   1.6294   0.07616   0.07014  -0.0796  0.0566  1.0000  -5.4729   0.0000   0.0000   0.0000   0.2685
  16.600   1.6267   0.07770   0.07169  -0.0794  0.0557  1.0000  -5.5005   0.0000   0.0000   0.0000   0.2683
  16.700   1.6263   0.07894   0.07297  -0.0793  0.0546  1.0000  -5.5386   0.0000   0.0000   0.0000   0.2680
  16.800   1.6261   0.08018   0.07425  -0.0792  0.0534  1.0000  -5.5774   0.0000   0.0000   0.0000   0.2677
  16.900   1.6248   0.08155   0.07564  -0.0791  0.0524  1.0000  -5.6115   0.0000   0.0000   0.0000   0.2674
  17.000   1.6227   0.08304   0.07715  -0.0790  0.0515  1.0000  -5.6416   0.0000   0.0000   0.0000   0.2672
  17.100   1.6194   0.08469   0.07881  -0.0790  0.0508  1.0000  -5.6656   0.0000   0.0000   0.0000   0.2670
  17.200   1.6186   0.08603   0.08019  -0.0790  0.0498  1.0000  -5.7014   0.0000   0.0000   0.0000   0.2668
  17.300   1.6183   0.08733   0.08153  -0.0789  0.0488  1.0000  -5.7390   0.0000   0.0000   0.0000   0.2665
  17.400   1.6171   0.08874   0.08297  -0.0789  0.0479  1.0000  -5.7729   0.0000   0.0000   0.0000   0.2663
  17.500   1.6149   0.09029   0.08454  -0.0790  0.0471  1.0000  -5.8018   0.0000   0.0000   0.0000   0.2662
  17.600   1.6118   0.09196   0.08623  -0.0790  0.0464  1.0000  -5.8262   0.0000   0.0000   0.0000   0.2661
  17.700   1.6081   0.09373   0.08801  -0.0791  0.0458  1.0000  -5.8470   0.0000   0.0000   0.0000   0.2660
  17.800   1.6083   0.09499   0.08932  -0.0792  0.0448  1.0000  -5.8864   0.0000   0.0000   0.0000   0.2658
  17.900   1.6074   0.09638   0.09075  -0.0792  0.0440  1.0000  -5.9213   0.0000   0.0000   0.0000   0.2656
  18.000   1.6058   0.09789   0.09230  -0.0794  0.0432  1.0000  -5.9521   0.0000   0.0000   0.0000   0.2655
  18.100   1.6034   0.09951   0.09394  -0.0795  0.0425  1.0000  -5.9789   0.0000   0.0000   0.0000   0.2654
  18.200   1.5999   0.10128   0.09572  -0.0797  0.0419  1.0000  -5.9999   0.0000   0.0000   0.0000   0.2654
  18.300   1.5955   0.10316   0.09762  -0.0799  0.0414  1.0000  -6.0159   0.0000   0.0000   0.0000   0.2654
  18.400   1.5954   0.10449   0.09900  -0.0801  0.0406  1.0000  -6.0530   0.0000   0.0000   0.0000   0.2652
  18.500   1.5944   0.10592   0.10048  -0.0802  0.0398  1.0000  -6.0860   0.0000   0.0000   0.0000   0.2651
  18.600   1.5927   0.10747   0.10206  -0.0805  0.0391  1.0000  -6.1157   0.0000   0.0000   0.0000   0.2650
  18.700   1.5905   0.10910   0.10371  -0.0807  0.0385  1.0000  -6.1424   0.0000   0.0000   0.0000   0.2650
  18.800   1.5875   0.11085   0.10548  -0.0810  0.0380  1.0000  -6.1645   0.0000   0.0000   0.0000   0.2651
  18.900   1.5838   0.11271   0.10736  -0.0814  0.0375  1.0000  -6.1822   0.0000   0.0000   0.0000   0.2652
  19.000   1.5802   0.11456   0.10922  -0.0818  0.0370  1.0000  -6.1998   0.0000   0.0000   0.0000   0.2652
  19.100   1.5796   0.11598   0.11071  -0.0820  0.0364  1.0000  -6.2332   0.0000   0.0000   0.0000   0.2652
  19.200   1.5784   0.11751   0.11227  -0.0824  0.0357  1.0000  -6.2631   0.0000   0.0000   0.0000   0.2652
  19.300   1.5767   0.11910   0.11391  -0.0827  0.0352  1.0000  -6.2906   0.0000   0.0000   0.0000   0.2652
  19.400   1.5748   0.12072   0.11555  -0.0831  0.0347  1.0000  -6.3174   0.0000   0.0000   0.0000   0.2652
  19.500   1.5724   0.12244   0.11730  -0.0836  0.0342  1.0000  -6.3405   0.0000   0.0000   0.0000   0.2654
  19.600   1.5695   0.12421   0.11909  -0.0840  0.0338  1.0000  -6.3612   0.0000   0.0000   0.0000   0.2655
  19.700   1.5660   0.12610   0.12098  -0.0846  0.0334  1.0000  -6.3771   0.0000   0.0000   0.0000   0.2657
  19.800   1.5628   0.12792   0.12282  -0.0851  0.0330  1.0000  -6.3945   0.0000   0.0000   0.0000   0.2659
  19.900   1.5622   0.12939   0.12435  -0.0855  0.0325  1.0000  -6.4252   0.0000   0.0000   0.0000   0.2659
  20.000   1.5609   0.13094   0.12594  -0.0860  0.0320  1.0000  -6.4530   0.0000   0.0000   0.0000   0.2660


