xflr5 v6.57

 Calculated polar for: reaf

 1 1 Reynolds number fixed          Mach number fixed         

 xtrf =   1.000 (top)        1.000 (bottom)
 Mach =   0.000     Re =     0.220 e 6     Ncrit =   9.000

  alpha     CL        CD       CDp       Cm    Top Xtr Bot Xtr   Cpmin    Chinge    XCp    
 ------- -------- --------- --------- -------- ------- ------- -------- --------- ---------
  -9.800  -0.1071   0.09693   0.09321  -0.0912  0.9047  0.0604  -1.5871   0.0000   0.0000   0.0000  -0.6678
  -9.700  -0.1035   0.09599   0.09226  -0.0913  0.9030  0.0610  -1.5721   0.0000   0.0000   0.0000  -0.7004
  -9.600  -0.1002   0.09494   0.09121  -0.0918  0.9007  0.0616  -1.5653   0.0000   0.0000   0.0000  -0.7352
  -9.500  -0.0982   0.09380   0.09007  -0.0924  0.8987  0.0625  -1.5692   0.0000   0.0000   0.0000  -0.7600
  -9.400  -0.1002   0.09227   0.08853  -0.0938  0.8968  0.0639  -1.6137   0.0000   0.0000   0.0000  -0.7538
  -9.200  -0.1073   0.08822   0.08451  -0.0980  0.8919  0.0653  -1.7462   0.0000   0.0000   0.0000  -0.7251
  -9.100  -0.0995   0.08774   0.08401  -0.0969  0.8905  0.0657  -1.6833   0.0000   0.0000   0.0000  -0.7895
  -9.000  -0.0935   0.08713   0.08339  -0.0962  0.8891  0.0662  -1.6400   0.0000   0.0000   0.0000  -0.8489
  -8.900  -0.0887   0.08634   0.08260  -0.0962  0.8874  0.0669  -1.6134   0.0000   0.0000   0.0000  -0.9070
  -8.800  -0.0851   0.08535   0.08161  -0.0967  0.8853  0.0678  -1.6022   0.0000   0.0000   0.0000  -0.9611
  -8.700  -0.0836   0.08412   0.08037  -0.0975  0.8833  0.0690  -1.6111   0.0000   0.0000   0.0000  -0.9915
  -7.800  -0.1564   0.04211   0.03746  -0.1427  0.8589  0.0535  -3.1069   0.0000   0.0000   0.0000  -0.7015
  -7.700  -0.1485   0.04139   0.03677  -0.1426  0.8576  0.0537  -3.0522   0.0000   0.0000   0.0000  -0.7516
  -7.600  -0.1404   0.04078   0.03616  -0.1426  0.8564  0.0539  -2.9966   0.0000   0.0000   0.0000  -0.8086
  -7.500  -0.1320   0.04028   0.03566  -0.1426  0.8554  0.0542  -2.9382   0.0000   0.0000   0.0000  -0.8755
  -7.400  -0.1239   0.03996   0.03537  -0.1427  0.8532  0.0545  -2.8791   0.0000   0.0000   0.0000  -0.9479
  -7.300  -0.1155   0.03968   0.03509  -0.1427  0.8513  0.0551  -2.8176   0.0000   0.0000   0.0000  -1.0347
  -7.200  -0.1211   0.03341   0.02804  -0.1456  0.8490  0.0523  -3.0801   0.0000   0.0000   0.0000  -1.0002
  -7.100  -0.1147   0.03169   0.02605  -0.1461  0.8478  0.0524  -3.1012   0.0000   0.0000   0.0000  -1.0741
  -7.000  -0.1072   0.03019   0.02426  -0.1464  0.8467  0.0525  -3.1112   0.0000   0.0000   0.0000  -1.1692
  -6.900  -0.1002   0.02908   0.02295  -0.1465  0.8443  0.0526  -3.1102   0.0000   0.0000   0.0000  -1.2686
  -6.800  -0.0921   0.02806   0.02171  -0.1466  0.8425  0.0528  -3.1002   0.0000   0.0000   0.0000  -1.4038
  -6.700  -0.0832   0.02711   0.02053  -0.1467  0.8410  0.0530  -3.0859   0.0000   0.0000   0.0000  -1.5810
  -6.600  -0.0737   0.02628   0.01944  -0.1468  0.8397  0.0533  -3.0673   0.0000   0.0000   0.0000  -1.8165
  -6.500  -0.0638   0.02553   0.01864  -0.1468  0.8387  0.0538  -3.0213   0.0000   0.0000   0.0000  -2.1370
  -6.400  -0.0533   0.02505   0.01816  -0.1469  0.8379  0.0543  -2.9635   0.0000   0.0000   0.0000  -2.6071
  -6.300  -0.0443   0.02483   0.01798  -0.1468  0.8355  0.0548  -2.9073   0.0000   0.0000   0.0000  -3.1802
  -6.200  -0.0345   0.02456   0.01769  -0.1467  0.8337  0.0555  -2.8512   0.0000   0.0000   0.0000  -4.1558
  -6.100  -0.0242   0.02419   0.01726  -0.1467  0.8323  0.0564  -2.8003   0.0000   0.0000   0.0000  -6.0198
  -6.000  -0.0137   0.02374   0.01666  -0.1467  0.8311  0.0574  -2.7562   0.0000   0.0000   0.0000  -10.8230
  -5.900  -0.0029   0.02324   0.01597  -0.1467  0.8300  0.0583  -2.7188   0.0000   0.0000   0.0000  -51.9076
  -5.800   0.0081   0.02276   0.01529  -0.1467  0.8291  0.0591  -2.6875   0.0000   0.0000   0.0000  18.9408
  -5.700   0.0174   0.02237   0.01495  -0.1466  0.8272  0.0597  -2.6399   0.0000   0.0000   0.0000   8.9285
  -5.600   0.0271   0.02211   0.01470  -0.1465  0.8252  0.0604  -2.5913   0.0000   0.0000   0.0000   5.8205
  -5.500   0.0376   0.02184   0.01443  -0.1465  0.8237  0.0612  -2.5419   0.0000   0.0000   0.0000   4.2665
  -5.400   0.0485   0.02154   0.01407  -0.1465  0.8225  0.0621  -2.4951   0.0000   0.0000   0.0000   3.3654
  -5.300   0.0596   0.02121   0.01366  -0.1464  0.8214  0.0632  -2.4511   0.0000   0.0000   0.0000   2.7823
  -5.200   0.0710   0.02091   0.01321  -0.1464  0.8205  0.0644  -2.4090   0.0000   0.0000   0.0000   2.3732
  -5.100   0.0822   0.02054   0.01282  -0.1465  0.8197  0.0656  -2.3591   0.0000   0.0000   0.0000   2.0836
  -5.000   0.0909   0.02044   0.01278  -0.1463  0.8171  0.0667  -2.3095   0.0000   0.0000   0.0000   1.9043
  -4.900   0.1012   0.02028   0.01262  -0.1462  0.8153  0.0680  -2.2589   0.0000   0.0000   0.0000   1.7349
  -4.800   0.1121   0.02007   0.01235  -0.1462  0.8140  0.0695  -2.2114   0.0000   0.0000   0.0000   1.5892
  -4.700   0.1235   0.01985   0.01201  -0.1461  0.8128  0.0709  -2.1672   0.0000   0.0000   0.0000   1.4649
  -4.600   0.1345   0.01949   0.01171  -0.1461  0.8118  0.0721  -2.1159   0.0000   0.0000   0.0000   1.3651
  -4.500   0.1459   0.01926   0.01149  -0.1461  0.8109  0.0736  -2.0659   0.0000   0.0000   0.0000   1.2777
  -4.400   0.1563   0.01913   0.01133  -0.1461  0.8093  0.0753  -2.0225   0.0000   0.0000   0.0000   1.2081
  -4.300   0.1659   0.01907   0.01122  -0.1459  0.8071  0.0772  -1.9845   0.0000   0.0000   0.0000   1.1508
  -4.200   0.1762   0.01884   0.01104  -0.1458  0.8055  0.0789  -1.9392   0.0000   0.0000   0.0000   1.0974
  -4.100   0.1872   0.01866   0.01089  -0.1458  0.8042  0.0809  -1.8919   0.0000   0.0000   0.0000   1.0471
  -4.000   0.1987   0.01849   0.01066  -0.1458  0.8030  0.0832  -1.8481   0.0000   0.0000   0.0000   1.0007
  -3.900   0.2101   0.01824   0.01042  -0.1458  0.8021  0.0853  -1.8034   0.0000   0.0000   0.0000   0.9596
  -3.800   0.2216   0.01804   0.01025  -0.1459  0.8012  0.0878  -1.7551   0.0000   0.0000   0.0000   0.9225
  -3.700   0.2311   0.01802   0.01020  -0.1457  0.7990  0.0906  -1.7148   0.0000   0.0000   0.0000   0.8936
  -3.600   0.2409   0.01789   0.01012  -0.1456  0.7970  0.0932  -1.6716   0.0000   0.0000   0.0000   0.8667
  -3.500   0.2518   0.01777   0.01001  -0.1456  0.7955  0.0965  -1.6264   0.0000   0.0000   0.0000   0.8396
  -3.400   0.2631   0.01759   0.00983  -0.1456  0.7942  0.0999  -1.5819   0.0000   0.0000   0.0000   0.8141
  -3.300   0.2746   0.01742   0.00968  -0.1456  0.7932  0.1039  -1.5355   0.0000   0.0000   0.0000   0.7903
  -3.200   0.2862   0.01723   0.00950  -0.1457  0.7923  0.1084  -1.4894   0.0000   0.0000   0.0000   0.7682
  -3.100   0.2982   0.01708   0.00933  -0.1457  0.7915  0.1141  -1.4451   0.0000   0.0000   0.0000   0.7473
  -3.000   0.3066   0.01708   0.00941  -0.1455  0.7886  0.1188  -1.4089   0.0000   0.0000   0.0000   0.7326
  -2.900   0.3171   0.01698   0.00935  -0.1455  0.7868  0.1251  -1.3700   0.0000   0.0000   0.0000   0.7163
  -2.800   0.3283   0.01684   0.00923  -0.1455  0.7854  0.1329  -1.3294   0.0000   0.0000   0.0000   0.7002
  -2.700   0.3398   0.01668   0.00911  -0.1456  0.7842  0.1422  -1.2880   0.0000   0.0000   0.0000   0.6850
  -2.600   0.3515   0.01651   0.00898  -0.1457  0.7832  0.1534  -1.2461   0.0000   0.0000   0.0000   0.6704
  -2.500   0.3635   0.01634   0.00885  -0.1458  0.7823  0.1670  -1.2039   0.0000   0.0000   0.0000   0.6567
  -2.400   0.3741   0.01624   0.00883  -0.1458  0.7807  0.1812  -1.1639   0.0000   0.0000   0.0000   0.6449
  -2.300   0.3833   0.01624   0.00890  -0.1457  0.7782  0.1968  -1.1267   0.0000   0.0000   0.0000   0.6348
  -2.200   0.3942   0.01614   0.00887  -0.1457  0.7765  0.2147  -1.0860   0.0000   0.0000   0.0000   0.6241
  -2.100   0.4056   0.01600   0.00880  -0.1458  0.7752  0.2345  -1.0442   0.0000   0.0000   0.0000   0.6135
  -2.000   0.4173   0.01586   0.00872  -0.1459  0.7740  0.2561  -1.0019   0.0000   0.0000   0.0000   0.6034
  -1.900   0.4292   0.01570   0.00863  -0.1461  0.7731  0.2792  -0.9625   0.0000   0.0000   0.0000   0.5937
  -1.800   0.4412   0.01554   0.00854  -0.1462  0.7722  0.3042  -0.9229   0.0000   0.0000   0.0000   0.5844
  -1.700   0.4500   0.01558   0.00869  -0.1460  0.7695  0.3278  -0.8894   0.0000   0.0000   0.0000   0.5772
  -1.600   0.4603   0.01553   0.00873  -0.1460  0.7675  0.3547  -0.8536   0.0000   0.0000   0.0000   0.5696
  -1.500   0.4713   0.01542   0.00872  -0.1460  0.7660  0.3843  -0.8163   0.0000   0.0000   0.0000   0.5619
  -1.400   0.4828   0.01528   0.00868  -0.1460  0.7647  0.4167  -0.8105   0.0000   0.0000   0.0000   0.5544
  -1.300   0.4944   0.01513   0.00862  -0.1461  0.7637  0.4510  -0.8183   0.0000   0.0000   0.0000   0.5472
  -1.200   0.5061   0.01498   0.00857  -0.1461  0.7628  0.4875  -0.8263   0.0000   0.0000   0.0000   0.5401
  -1.100   0.5164   0.01491   0.00862  -0.1460  0.7612  0.5228  -0.8335   0.0000   0.0000   0.0000   0.5338
  -1.000   0.5249   0.01496   0.00878  -0.1456  0.7584  0.5555  -0.8393   0.0000   0.0000   0.0000   0.5283
  -0.900   0.5352   0.01489   0.00882  -0.1454  0.7567  0.5901  -0.8465   0.0000   0.0000   0.0000   0.5224
  -0.800   0.5457   0.01478   0.00882  -0.1451  0.7553  0.6238  -0.8540   0.0000   0.0000   0.0000   0.5164
  -0.700   0.5565   0.01468   0.00879  -0.1448  0.7542  0.6576  -0.8618   0.0000   0.0000   0.0000   0.5106
  -0.600   0.5673   0.01457   0.00875  -0.1445  0.7532  0.6884  -0.8698   0.0000   0.0000   0.0000   0.5049
  -0.500   0.5783   0.01446   0.00869  -0.1442  0.7523  0.7174  -0.8781   0.0000   0.0000   0.0000   0.4993
  -0.400   0.5851   0.01459   0.00891  -0.1435  0.7491  0.7414  -0.8830   0.0000   0.0000   0.0000   0.4949
  -0.300   0.5940   0.01458   0.00896  -0.1429  0.7471  0.7661  -0.8898   0.0000   0.0000   0.0000   0.4901
  -0.200   0.6034   0.01451   0.00894  -0.1423  0.7456  0.7902  -0.8971   0.0000   0.0000   0.0000   0.4852
  -0.100   0.6127   0.01441   0.00888  -0.1416  0.7443  0.8137  -0.9047   0.0000   0.0000   0.0000   0.4803
   0.000   0.6221   0.01430   0.00880  -0.1409  0.7433  0.8375  -0.9125   0.0000   0.0000   0.0000   0.4755
   0.100   0.6312   0.01418   0.00869  -0.1401  0.7424  0.8619  -0.9204   0.0000   0.0000   0.0000   0.4707
   0.200   0.6365   0.01427   0.00886  -0.1388  0.7393  0.8874  -0.9253   0.0000   0.0000   0.0000   0.4668
   0.300   0.6456   0.01422   0.00885  -0.1382  0.7371  0.9192  -0.9328   0.0000   0.0000   0.0000   0.4626
   0.400   0.6635   0.01410   0.00872  -0.1394  0.7357  0.9660  -0.9454   0.0000   0.0000   0.0000   0.4584
   0.500   0.6794   0.01403   0.00860  -0.1403  0.7344  1.0000  -0.9569   0.0000   0.0000   0.0000   0.4547
   0.600   0.6926   0.01399   0.00850  -0.1407  0.7333  1.0000  -0.9672   0.0000   0.0000   0.0000   0.4511
   0.700   0.7059   0.01394   0.00839  -0.1411  0.7324  1.0000  -0.9776   0.0000   0.0000   0.0000   0.4476
   0.800   0.7148   0.01410   0.00855  -0.1409  0.7293  1.0000  -0.9850   0.0000   0.0000   0.0000   0.4447
   0.900   0.7256   0.01416   0.00859  -0.1409  0.7271  1.0000  -0.9938   0.0000   0.0000   0.0000   0.4417
   1.000   0.7377   0.01415   0.00854  -0.1411  0.7254  1.0000  -1.0036   0.0000   0.0000   0.0000   0.4386
   1.100   0.7503   0.01412   0.00846  -0.1413  0.7241  1.0000  -1.0141   0.0000   0.0000   0.0000   0.4356
   1.200   0.7633   0.01406   0.00836  -0.1416  0.7229  1.0000  -1.0250   0.0000   0.0000   0.0000   0.4326
   1.300   0.7765   0.01401   0.00825  -0.1419  0.7220  1.0000  -1.0364   0.0000   0.0000   0.0000   0.4296
   1.400   0.7843   0.01421   0.00847  -0.1415  0.7184  1.0000  -1.0438   0.0000   0.0000   0.0000   0.4272
   1.500   0.7955   0.01423   0.00848  -0.1415  0.7162  1.0000  -1.0538   0.0000   0.0000   0.0000   0.4246
   1.600   0.8077   0.01421   0.00842  -0.1417  0.7147  1.0000  -1.0647   0.0000   0.0000   0.0000   0.4219
   1.700   0.8204   0.01416   0.00833  -0.1419  0.7133  1.0000  -1.0760   0.0000   0.0000   0.0000   0.4193
   1.800   0.8334   0.01410   0.00822  -0.1422  0.7122  1.0000  -1.0878   0.0000   0.0000   0.0000   0.4168
   1.900   0.8430   0.01421   0.00834  -0.1420  0.7094  1.0000  -1.0972   0.0000   0.0000   0.0000   0.4145
   2.000   0.8531   0.01428   0.00840  -0.1419  0.7068  1.0000  -1.1071   0.0000   0.0000   0.0000   0.4122
   2.100   0.8649   0.01426   0.00836  -0.1420  0.7049  1.0000  -1.1183   0.0000   0.0000   0.0000   0.4099
   2.200   0.8773   0.01422   0.00828  -0.1421  0.7034  1.0000  -1.1302   0.0000   0.0000   0.0000   0.4076
   2.300   0.8903   0.01416   0.00818  -0.1424  0.7021  1.0000  -1.1427   0.0000   0.0000   0.0000   0.4054
   2.400   0.9010   0.01420   0.00822  -0.1423  0.6999  1.0000  -1.1537   0.0000   0.0000   0.0000   0.4033
   2.500   0.9103   0.01431   0.00833  -0.1421  0.6969  1.0000  -1.1637   0.0000   0.0000   0.0000   0.4013
   2.600   0.9218   0.01430   0.00831  -0.1421  0.6948  1.0000  -1.1757   0.0000   0.0000   0.0000   0.3993
   2.700   0.9342   0.01425   0.00824  -0.1423  0.6931  1.0000  -1.1886   0.0000   0.0000   0.0000   0.3972
   2.800   0.9472   0.01419   0.00813  -0.1425  0.6918  1.0000  -1.2020   0.0000   0.0000   0.0000   0.3953
   2.900   0.9575   0.01425   0.00819  -0.1424  0.6892  1.0000  -1.2132   0.0000   0.0000   0.0000   0.3934
   3.000   0.9670   0.01433   0.00828  -0.1422  0.6862  1.0000  -1.2239   0.0000   0.0000   0.0000   0.3915
   3.100   0.9786   0.01431   0.00824  -0.1422  0.6840  1.0000  -1.2369   0.0000   0.0000   0.0000   0.3897
   3.200   0.9912   0.01425   0.00816  -0.1424  0.6823  1.0000  -1.2508   0.0000   0.0000   0.0000   0.3879
   3.300   1.0043   0.01419   0.00805  -0.1427  0.6809  1.0000  -1.2652   0.0000   0.0000   0.0000   0.3861
   3.400   1.0127   0.01431   0.00820  -0.1423  0.6774  1.0000  -1.2758   0.0000   0.0000   0.0000   0.3844
   3.500   1.0232   0.01434   0.00824  -0.1422  0.6747  1.0000  -1.2885   0.0000   0.0000   0.0000   0.3828
   3.600   1.0353   0.01430   0.00818  -0.1423  0.6727  1.0000  -1.3027   0.0000   0.0000   0.0000   0.3811
   3.700   1.0481   0.01424   0.00808  -0.1425  0.6710  1.0000  -1.3178   0.0000   0.0000   0.0000   0.3795
   3.800   1.0583   0.01429   0.00814  -0.1423  0.6682  1.0000  -1.3310   0.0000   0.0000   0.0000   0.3779
   3.900   1.0678   0.01436   0.00822  -0.1421  0.6650  1.0000  -1.3438   0.0000   0.0000   0.0000   0.3763
   4.000   1.0794   0.01434   0.00818  -0.1421  0.6626  1.0000  -1.3592   0.0000   0.0000   0.0000   0.3748
   4.100   1.0920   0.01428   0.00810  -0.1423  0.6607  1.0000  -1.3755   0.0000   0.0000   0.0000   0.3733
   4.200   1.1028   0.01430   0.00812  -0.1422  0.6581  1.0000  -1.3907   0.0000   0.0000   0.0000   0.3718
   4.300   1.1119   0.01438   0.00822  -0.1419  0.6546  1.0000  -1.4044   0.0000   0.0000   0.0000   0.3703
   4.400   1.1233   0.01436   0.00819  -0.1419  0.6520  1.0000  -1.4205   0.0000   0.0000   0.0000   0.3689
   4.500   1.1358   0.01431   0.00811  -0.1421  0.6500  1.0000  -1.4380   0.0000   0.0000   0.0000   0.3675
   4.600   1.1457   0.01437   0.00818  -0.1419  0.6468  1.0000  -1.4531   0.0000   0.0000   0.0000   0.3661
   4.700   1.1553   0.01442   0.00824  -0.1416  0.6434  1.0000  -1.4682   0.0000   0.0000   0.0000   0.3647
   4.800   1.1669   0.01440   0.00821  -0.1417  0.6407  1.0000  -1.4855   0.0000   0.0000   0.0000   0.3634
   4.900   1.1797   0.01435   0.00812  -0.1419  0.6386  1.0000  -1.5040   0.0000   0.0000   0.0000   0.3621
   5.000   1.1877   0.01446   0.00827  -0.1414  0.6346  1.0000  -1.5184   0.0000   0.0000   0.0000   0.3607
   5.100   1.1982   0.01447   0.00829  -0.1413  0.6313  1.0000  -1.5352   0.0000   0.0000   0.0000   0.3594
   5.200   1.2104   0.01444   0.00823  -0.1414  0.6288  1.0000  -1.5546   0.0000   0.0000   0.0000   0.3582
   5.300   1.2199   0.01449   0.00830  -0.1411  0.6252  1.0000  -1.5724   0.0000   0.0000   0.0000   0.3569
   5.400   1.2294   0.01454   0.00836  -0.1408  0.6214  1.0000  -1.5903   0.0000   0.0000   0.0000   0.3557
   5.500   1.2411   0.01452   0.00832  -0.1409  0.6185  1.0000  -1.6111   0.0000   0.0000   0.0000   0.3545
   5.600   1.2512   0.01456   0.00836  -0.1407  0.6151  1.0000  -1.6307   0.0000   0.0000   0.0000   0.3533
   5.700   1.2602   0.01463   0.00844  -0.1403  0.6109  1.0000  -1.6494   0.0000   0.0000   0.0000   0.3520
   5.800   1.2716   0.01462   0.00842  -0.1403  0.6077  1.0000  -1.6709   0.0000   0.0000   0.0000   0.3509
   5.900   1.2812   0.01467   0.00848  -0.1400  0.6039  1.0000  -1.6908   0.0000   0.0000   0.0000   0.3497
   6.000   1.2904   0.01473   0.00856  -0.1397  0.5996  1.0000  -1.7106   0.0000   0.0000   0.0000   0.3485
   6.100   1.3018   0.01473   0.00852  -0.1397  0.5964  1.0000  -1.7334   0.0000   0.0000   0.0000   0.3474
   6.200   1.3103   0.01482   0.00864  -0.1393  0.5919  1.0000  -1.7532   0.0000   0.0000   0.0000   0.3462
   6.300   1.3200   0.01487   0.00869  -0.1390  0.5878  1.0000  -1.7753   0.0000   0.0000   0.0000   0.3451
   6.400   1.3313   0.01488   0.00866  -0.1390  0.5844  1.0000  -1.8029   0.0000   0.0000   0.0000   0.3440
   6.500   1.3388   0.01500   0.00882  -0.1384  0.5793  1.0000  -1.8261   0.0000   0.0000   0.0000   0.3429
   6.600   1.3491   0.01503   0.00885  -0.1383  0.5754  1.0000  -1.8533   0.0000   0.0000   0.0000   0.3418
   6.700   1.3580   0.01512   0.00894  -0.1379  0.5709  1.0000  -1.8796   0.0000   0.0000   0.0000   0.3407
   6.800   1.3669   0.01520   0.00903  -0.1375  0.5662  1.0000  -1.9072   0.0000   0.0000   0.0000   0.3396
   6.900   1.3772   0.01525   0.00905  -0.1373  0.5621  1.0000  -1.9383   0.0000   0.0000   0.0000   0.3386
   7.000   1.3847   0.01537   0.00920  -0.1368  0.5567  1.0000  -1.9654   0.0000   0.0000   0.0000   0.3375
   7.100   1.3950   0.01542   0.00921  -0.1366  0.5525  1.0000  -1.9984   0.0000   0.0000   0.0000   0.3364
   7.200   1.4022   0.01555   0.00938  -0.1359  0.5469  1.0000  -2.0263   0.0000   0.0000   0.0000   0.3353
   7.300   1.4117   0.01562   0.00942  -0.1357  0.5422  1.0000  -2.0583   0.0000   0.0000   0.0000   0.3343
   7.400   1.4190   0.01575   0.00958  -0.1350  0.5366  1.0000  -2.0867   0.0000   0.0000   0.0000   0.3332
   7.500   1.4279   0.01585   0.00965  -0.1347  0.5316  1.0000  -2.1195   0.0000   0.0000   0.0000   0.3322
   7.600   1.4351   0.01599   0.00980  -0.1340  0.5259  1.0000  -2.1494   0.0000   0.0000   0.0000   0.3311
   7.700   1.4436   0.01610   0.00989  -0.1336  0.5207  1.0000  -2.1832   0.0000   0.0000   0.0000   0.3301
   7.800   1.4506   0.01625   0.01006  -0.1329  0.5149  1.0000  -2.2144   0.0000   0.0000   0.0000   0.3291
   7.900   1.4587   0.01638   0.01016  -0.1324  0.5097  1.0000  -2.2480   0.0000   0.0000   0.0000   0.3280
   8.000   1.4652   0.01654   0.01034  -0.1317  0.5037  1.0000  -2.2787   0.0000   0.0000   0.0000   0.3270
   8.100   1.4729   0.01669   0.01045  -0.1312  0.4984  1.0000  -2.3119   0.0000   0.0000   0.0000   0.3260
   8.200   1.4789   0.01687   0.01065  -0.1304  0.4922  1.0000  -2.3431   0.0000   0.0000   0.0000   0.3249
   8.300   1.4863   0.01703   0.01077  -0.1298  0.4867  1.0000  -2.3776   0.0000   0.0000   0.0000   0.3239
   8.400   1.4914   0.01723   0.01100  -0.1288  0.4802  1.0000  -2.4078   0.0000   0.0000   0.0000   0.3228
   8.500   1.4975   0.01742   0.01116  -0.1280  0.4745  1.0000  -2.4399   0.0000   0.0000   0.0000   0.3217
   8.600   1.5017   0.01762   0.01136  -0.1269  0.4681  1.0000  -2.4688   0.0000   0.0000   0.0000   0.3206
   8.700   1.5064   0.01784   0.01156  -0.1259  0.4619  1.0000  -2.4985   0.0000   0.0000   0.0000   0.3195
   8.800   1.5109   0.01807   0.01177  -0.1249  0.4556  1.0000  -2.5284   0.0000   0.0000   0.0000   0.3184
   8.900   1.5149   0.01833   0.01203  -0.1238  0.4492  1.0000  -2.5657   0.0000   0.0000   0.0000   0.3173
   9.000   1.5195   0.01859   0.01225  -0.1228  0.4432  1.0000  -2.6053   0.0000   0.0000   0.0000   0.3163
   9.100   1.5229   0.01887   0.01255  -0.1217  0.4365  1.0000  -2.6415   0.0000   0.0000   0.0000   0.3152
   9.200   1.5269   0.01917   0.01283  -0.1207  0.4304  1.0000  -2.6798   0.0000   0.0000   0.0000   0.3141
   9.300   1.5304   0.01948   0.01313  -0.1197  0.4240  1.0000  -2.7168   0.0000   0.0000   0.0000   0.3131
   9.400   1.5340   0.01981   0.01345  -0.1187  0.4178  1.0000  -2.7540   0.0000   0.0000   0.0000   0.3121
   9.500   1.5375   0.02015   0.01377  -0.1177  0.4118  1.0000  -2.7914   0.0000   0.0000   0.0000   0.3111
   9.600   1.5407   0.02051   0.01413  -0.1167  0.4053  1.0000  -2.8278   0.0000   0.0000   0.0000   0.3101
   9.700   1.5439   0.02088   0.01447  -0.1157  0.3994  1.0000  -2.8648   0.0000   0.0000   0.0000   0.3091
   9.800   1.5469   0.02127   0.01487  -0.1147  0.3929  1.0000  -2.9009   0.0000   0.0000   0.0000   0.3081
   9.900   1.5498   0.02167   0.01526  -0.1137  0.3868  1.0000  -2.9372   0.0000   0.0000   0.0000   0.3072
  10.000   1.5526   0.02210   0.01567  -0.1127  0.3805  1.0000  -2.9731   0.0000   0.0000   0.0000   0.3062
  10.100   1.5553   0.02253   0.01610  -0.1117  0.3742  1.0000  -3.0091   0.0000   0.0000   0.0000   0.3053
  10.300   1.5604   0.02345   0.01701  -0.1098  0.3618  1.0000  -3.0801   0.0000   0.0000   0.0000   0.3034
  10.400   1.5628   0.02394   0.01747  -0.1089  0.3559  1.0000  -3.1155   0.0000   0.0000   0.0000   0.3025
  10.500   1.5651   0.02444   0.01796  -0.1079  0.3496  1.0000  -3.1506   0.0000   0.0000   0.0000   0.3016
  10.600   1.5674   0.02494   0.01847  -0.1070  0.3435  1.0000  -3.1858   0.0000   0.0000   0.0000   0.3008
  10.700   1.5692   0.02548   0.01898  -0.1061  0.3377  1.0000  -3.2200   0.0000   0.0000   0.0000   0.2999
  10.800   1.5715   0.02602   0.01952  -0.1052  0.3313  1.0000  -3.2552   0.0000   0.0000   0.0000   0.2990
  10.900   1.5732   0.02658   0.02007  -0.1043  0.3256  1.0000  -3.2891   0.0000   0.0000   0.0000   0.2982
  11.000   1.5751   0.02715   0.02064  -0.1034  0.3194  1.0000  -3.3236   0.0000   0.0000   0.0000   0.2974
  11.100   1.5768   0.02774   0.02122  -0.1025  0.3134  1.0000  -3.3583   0.0000   0.0000   0.0000   0.2965
  11.200   1.5781   0.02836   0.02182  -0.1016  0.3076  1.0000  -3.3933   0.0000   0.0000   0.0000   0.2957
  11.300   1.5799   0.02897   0.02243  -0.1008  0.3015  1.0000  -3.4297   0.0000   0.0000   0.0000   0.2949
  11.400   1.5808   0.02963   0.02307  -0.0998  0.2959  1.0000  -3.4638   0.0000   0.0000   0.0000   0.2941
  11.500   1.5825   0.03026   0.02371  -0.0990  0.2897  1.0000  -3.5000   0.0000   0.0000   0.0000   0.2933
  11.600   1.5836   0.03093   0.02437  -0.0982  0.2840  1.0000  -3.5347   0.0000   0.0000   0.0000   0.2925
  11.700   1.5845   0.03163   0.02505  -0.0973  0.2783  1.0000  -3.5689   0.0000   0.0000   0.0000   0.2918
  11.800   1.5857   0.03231   0.02574  -0.0965  0.2724  1.0000  -3.6040   0.0000   0.0000   0.0000   0.2910
  11.900   1.5859   0.03306   0.02646  -0.0956  0.2671  1.0000  -3.6361   0.0000   0.0000   0.0000   0.2902
  12.000   1.5873   0.03375   0.02717  -0.0949  0.2610  1.0000  -3.6718   0.0000   0.0000   0.0000   0.2895
  12.100   1.5877   0.03452   0.02792  -0.0941  0.2557  1.0000  -3.7045   0.0000   0.0000   0.0000   0.2888
  12.200   1.5883   0.03527   0.02867  -0.0933  0.2500  1.0000  -3.7381   0.0000   0.0000   0.0000   0.2880
  12.300   1.5890   0.03604   0.02944  -0.0925  0.2444  1.0000  -3.7716   0.0000   0.0000   0.0000   0.2873
  12.400   1.5889   0.03687   0.03024  -0.0917  0.2392  1.0000  -3.8030   0.0000   0.0000   0.0000   0.2866
  12.500   1.5897   0.03764   0.03103  -0.0910  0.2335  1.0000  -3.8372   0.0000   0.0000   0.0000   0.2859
  12.600   1.5894   0.03851   0.03187  -0.0902  0.2285  1.0000  -3.8679   0.0000   0.0000   0.0000   0.2852
  12.700   1.5900   0.03933   0.03271  -0.0895  0.2228  1.0000  -3.9012   0.0000   0.0000   0.0000   0.2846
  12.800   1.5901   0.04020   0.03357  -0.0888  0.2176  1.0000  -3.9331   0.0000   0.0000   0.0000   0.2839
  12.900   1.5898   0.04111   0.03447  -0.0881  0.2124  1.0000  -3.9637   0.0000   0.0000   0.0000   0.2833
  13.000   1.5902   0.04199   0.03535  -0.0875  0.2069  1.0000  -3.9965   0.0000   0.0000   0.0000   0.2827
  13.100   1.5891   0.04299   0.03632  -0.0868  0.2022  1.0000  -4.0248   0.0000   0.0000   0.0000   0.2820
  13.200   1.5897   0.04388   0.03723  -0.0862  0.1966  1.0000  -4.0580   0.0000   0.0000   0.0000   0.2814
  13.300   1.5892   0.04487   0.03820  -0.0856  0.1917  1.0000  -4.0878   0.0000   0.0000   0.0000   0.2808
  13.400   1.5886   0.04587   0.03920  -0.0850  0.1866  1.0000  -4.1175   0.0000   0.0000   0.0000   0.2803
  13.500   1.5884   0.04685   0.04018  -0.0844  0.1814  1.0000  -4.1482   0.0000   0.0000   0.0000   0.2797
  13.600   1.5870   0.04795   0.04126  -0.0838  0.1770  1.0000  -4.1750   0.0000   0.0000   0.0000   0.2791
  13.700   1.5871   0.04894   0.04226  -0.0833  0.1717  1.0000  -4.2067   0.0000   0.0000   0.0000   0.2786
  13.800   1.5860   0.05004   0.04334  -0.0827  0.1672  1.0000  -4.2343   0.0000   0.0000   0.0000   0.2781
  13.900   1.5855   0.05111   0.04442  -0.0822  0.1624  1.0000  -4.2635   0.0000   0.0000   0.0000   0.2775
  14.000   1.5848   0.05221   0.04551  -0.0817  0.1579  1.0000  -4.2943   0.0000   0.0000   0.0000   0.2770
  14.100   1.5835   0.05337   0.04666  -0.0812  0.1536  1.0000  -4.3233   0.0000   0.0000   0.0000   0.2765
  14.200   1.5831   0.05446   0.04776  -0.0808  0.1492  1.0000  -4.3551   0.0000   0.0000   0.0000   0.2761
  14.300   1.5814   0.05568   0.04897  -0.0803  0.1453  1.0000  -4.3824   0.0000   0.0000   0.0000   0.2756
  14.400   1.5812   0.05678   0.05008  -0.0799  0.1410  1.0000  -4.4148   0.0000   0.0000   0.0000   0.2751
  14.500   1.5792   0.05805   0.05133  -0.0795  0.1375  1.0000  -4.4409   0.0000   0.0000   0.0000   0.2747
  14.600   1.5790   0.05915   0.05245  -0.0791  0.1333  1.0000  -4.4731   0.0000   0.0000   0.0000   0.2742
  14.700   1.5770   0.06045   0.05373  -0.0787  0.1302  1.0000  -4.4988   0.0000   0.0000   0.0000   0.2738
  14.800   1.5767   0.06158   0.05489  -0.0783  0.1263  1.0000  -4.5305   0.0000   0.0000   0.0000   0.2734
  14.900   1.5748   0.06289   0.05619  -0.0780  0.1232  1.0000  -4.5574   0.0000   0.0000   0.0000   0.2730
  15.000   1.5742   0.06408   0.05739  -0.0777  0.1198  1.0000  -4.5900   0.0000   0.0000   0.0000   0.2726
  15.100   1.5727   0.06538   0.05869  -0.0774  0.1168  1.0000  -4.6192   0.0000   0.0000   0.0000   0.2722
  15.200   1.5714   0.06666   0.05998  -0.0771  0.1139  1.0000  -4.6489   0.0000   0.0000   0.0000   0.2718
  15.300   1.5705   0.06791   0.06124  -0.0768  0.1108  1.0000  -4.6803   0.0000   0.0000   0.0000   0.2714
  15.400   1.5679   0.06934   0.06265  -0.0765  0.1087  1.0000  -4.7068   0.0000   0.0000   0.0000   0.2711
  15.500   1.5679   0.07051   0.06386  -0.0763  0.1055  1.0000  -4.7437   0.0000   0.0000   0.0000   0.2707
  15.600   1.5662   0.07188   0.06523  -0.0761  0.1031  1.0000  -4.7738   0.0000   0.0000   0.0000   0.2704
  15.700   1.5645   0.07324   0.06659  -0.0758  0.1009  1.0000  -4.8041   0.0000   0.0000   0.0000   0.2701
  15.800   1.5640   0.07448   0.06787  -0.0756  0.0982  1.0000  -4.8386   0.0000   0.0000   0.0000   0.2698
  15.900   1.5619   0.07589   0.06927  -0.0755  0.0963  1.0000  -4.8672   0.0000   0.0000   0.0000   0.2695
  16.000   1.5606   0.07723   0.07062  -0.0753  0.0942  1.0000  -4.8984   0.0000   0.0000   0.0000   0.2692
  16.100   1.5599   0.07852   0.07194  -0.0751  0.0918  1.0000  -4.9320   0.0000   0.0000   0.0000   0.2689
  16.200   1.5580   0.07993   0.07335  -0.0750  0.0900  1.0000  -4.9613   0.0000   0.0000   0.0000   0.2686
  16.300   1.5564   0.08131   0.07474  -0.0749  0.0882  1.0000  -4.9912   0.0000   0.0000   0.0000   0.2683
  16.400   1.5559   0.08261   0.07608  -0.0748  0.0861  1.0000  -5.0252   0.0000   0.0000   0.0000   0.2681
  16.500   1.5546   0.08400   0.07747  -0.0747  0.0844  1.0000  -5.0562   0.0000   0.0000   0.0000   0.2678
  16.600   1.5522   0.08546   0.07891  -0.0746  0.0830  1.0000  -5.0834   0.0000   0.0000   0.0000   0.2676
  16.700   1.5521   0.08674   0.08025  -0.0746  0.0810  1.0000  -5.1180   0.0000   0.0000   0.0000   0.2673
  16.800   1.5512   0.08811   0.08165  -0.0745  0.0792  1.0000  -5.1502   0.0000   0.0000   0.0000   0.2671
  16.900   1.5495   0.08953   0.08307  -0.0745  0.0779  1.0000  -5.1800   0.0000   0.0000   0.0000   0.2669
  17.000   1.5482   0.09090   0.08443  -0.0745  0.0765  1.0000  -5.2105   0.0000   0.0000   0.0000   0.2667
  17.100   1.5477   0.09225   0.08584  -0.0745  0.0748  1.0000  -5.2431   0.0000   0.0000   0.0000   0.2665
  17.200   1.5467   0.09362   0.08724  -0.0745  0.0733  1.0000  -5.2748   0.0000   0.0000   0.0000   0.2663
  17.300   1.5454   0.09501   0.08862  -0.0745  0.0721  1.0000  -5.3056   0.0000   0.0000   0.0000   0.2661
  17.400   1.5442   0.09635   0.08995  -0.0745  0.0709  1.0000  -5.3363   0.0000   0.0000   0.0000   0.2659
  17.500   1.5436   0.09771   0.09138  -0.0746  0.0694  1.0000  -5.3677   0.0000   0.0000   0.0000   0.2657
  17.600   1.5427   0.09909   0.09279  -0.0746  0.0680  1.0000  -5.3991   0.0000   0.0000   0.0000   0.2655
  17.700   1.5417   0.10047   0.09416  -0.0747  0.0669  1.0000  -5.4307   0.0000   0.0000   0.0000   0.2654
  17.800   1.5410   0.10169   0.09534  -0.0747  0.0659  1.0000  -5.4647   0.0000   0.0000   0.0000   0.2651
  17.900   1.5401   0.10315   0.09688  -0.0749  0.0645  1.0000  -5.4935   0.0000   0.0000   0.0000   0.2650
  18.000   1.5394   0.10455   0.09833  -0.0750  0.0633  1.0000  -5.5242   0.0000   0.0000   0.0000   0.2649
  18.100   1.5387   0.10591   0.09970  -0.0752  0.0621  1.0000  -5.5564   0.0000   0.0000   0.0000   0.2648
  18.200   1.5381   0.10720   0.10097  -0.0753  0.0611  1.0000  -5.5906   0.0000   0.0000   0.0000   0.2646
  18.300   1.5379   0.10843   0.10220  -0.0753  0.0601  1.0000  -5.6246   0.0000   0.0000   0.0000   0.2644
  18.400   1.5369   0.10992   0.10377  -0.0756  0.0589  1.0000  -5.6520   0.0000   0.0000   0.0000   0.2643
  18.500   1.5362   0.11132   0.10520  -0.0758  0.0578  1.0000  -5.6826   0.0000   0.0000   0.0000   0.2643
  18.600   1.5358   0.11264   0.10654  -0.0760  0.0569  1.0000  -5.7160   0.0000   0.0000   0.0000   0.2641
  18.700   1.5360   0.11380   0.10767  -0.0761  0.0560  1.0000  -5.7539   0.0000   0.0000   0.0000   0.2640
  18.800   1.5363   0.11494   0.10882  -0.0762  0.0550  1.0000  -5.7899   0.0000   0.0000   0.0000   0.2638
  18.900   1.5351   0.11649   0.11045  -0.0765  0.0541  1.0000  -5.8147   0.0000   0.0000   0.0000   0.2638
  19.000   1.5346   0.11788   0.11188  -0.0768  0.0531  1.0000  -5.8447   0.0000   0.0000   0.0000   0.2637
  19.100   1.5346   0.11914   0.11316  -0.0770  0.0522  1.0000  -5.8790   0.0000   0.0000   0.0000   0.2636
  19.200   1.5353   0.12024   0.11425  -0.0772  0.0514  1.0000  -5.9183   0.0000   0.0000   0.0000   0.2634
  19.300   1.5378   0.12088   0.11481  -0.0771  0.0507  1.0000  -5.9694   0.0000   0.0000   0.0000   0.2630
  19.400   1.5367   0.12239   0.11641  -0.0774  0.0499  1.0000  -5.9928   0.0000   0.0000   0.0000   0.2630
  19.500   1.5357   0.12388   0.11798  -0.0778  0.0491  1.0000  -6.0177   0.0000   0.0000   0.0000   0.2630
  19.600   1.5355   0.12523   0.11937  -0.0781  0.0483  1.0000  -6.0477   0.0000   0.0000   0.0000   0.2630
  19.700   1.5358   0.12645   0.12061  -0.0784  0.0476  1.0000  -6.0828   0.0000   0.0000   0.0000   0.2629
  19.800   1.5370   0.12748   0.12163  -0.0786  0.0469  1.0000  -6.1243   0.0000   0.0000   0.0000   0.2627
  19.900   1.5402   0.12804   0.12213  -0.0786  0.0462  1.0000  -6.1793   0.0000   0.0000   0.0000   0.2623
  20.000   1.5411   0.12909   0.12320  -0.0787  0.0455  1.0000  -6.2163   0.0000   0.0000   0.0000   0.2621


