xflr5 v6.57

 Calculated polar for: reaf

 1 1 Reynolds number fixed          Mach number fixed         

 xtrf =   1.000 (top)        1.000 (bottom)
 Mach =   0.000     Re =     0.160 e 6     Ncrit =   9.000

  alpha     CL        CD       CDp       Cm    Top Xtr Bot Xtr   Cpmin    Chinge    XCp    
 ------- -------- --------- --------- -------- ------- ------- -------- --------- ---------
  -9.800  -0.0832   0.09814   0.09401  -0.1025  0.9444  0.0782  -1.5297   0.0000   0.0000   0.0000  -1.0686
  -9.700  -0.0754   0.09722   0.09308  -0.1021  0.9425  0.0789  -1.4873   0.0000   0.0000   0.0000  -1.1991
  -9.600  -0.0700   0.09626   0.09211  -0.1022  0.9403  0.0798  -1.4654   0.0000   0.0000   0.0000  -1.3099
  -9.500  -0.0658   0.09516   0.09101  -0.1027  0.9385  0.0809  -1.4571   0.0000   0.0000   0.0000  -1.4180
  -9.400  -0.0642   0.09404   0.08989  -0.1035  0.9359  0.0821  -1.4654   0.0000   0.0000   0.0000  -1.4715
  -9.300  -0.0766   0.09222   0.08808  -0.1078  0.9321  0.0840  -1.5956   0.0000   0.0000   0.0000  -1.2469
  -9.200  -0.0787   0.09064   0.08652  -0.1092  0.9291  0.0844  -1.6329   0.0000   0.0000   0.0000  -1.2246
  -9.100  -0.0690   0.08972   0.08559  -0.1079  0.9277  0.0848  -1.5725   0.0000   0.0000   0.0000  -1.4125
  -9.000  -0.0612   0.08885   0.08470  -0.1072  0.9262  0.0854  -1.5286   0.0000   0.0000   0.0000  -1.6111
  -8.900  -0.0552   0.08795   0.08380  -0.1070  0.9247  0.0861  -1.4994   0.0000   0.0000   0.0000  -1.8092
  -8.800  -0.0515   0.08710   0.08294  -0.1071  0.9220  0.0870  -1.4842   0.0000   0.0000   0.0000  -1.9573
  -8.700  -0.0488   0.08608   0.08192  -0.1075  0.9199  0.0882  -1.4809   0.0000   0.0000   0.0000  -2.0833
  -8.600  -0.0505   0.08476   0.08061  -0.1090  0.9175  0.0900  -1.5132   0.0000   0.0000   0.0000  -2.0358
  -8.400  -0.0582   0.08151   0.07737  -0.1128  0.9115  0.0918  -1.6094   0.0000   0.0000   0.0000  -1.7923
  -8.300  -0.0503   0.08082   0.07668  -0.1117  0.9099  0.0923  -1.5604   0.0000   0.0000   0.0000  -2.0917
  -8.200  -0.0446   0.08012   0.07598  -0.1113  0.9078  0.0931  -1.5274   0.0000   0.0000   0.0000  -2.3828
  -8.100  -0.0400   0.07930   0.07515  -0.1112  0.9058  0.0941  -1.5060   0.0000   0.0000   0.0000  -2.6762
  -8.000  -0.0376   0.07828   0.07413  -0.1117  0.9040  0.0957  -1.5020   0.0000   0.0000   0.0000  -2.8748
  -7.900  -0.0552   0.07609   0.07198  -0.1169  0.8983  0.0983  -1.6437   0.0000   0.0000   0.0000  -1.9714
  -7.600  -0.0371   0.07368   0.06957  -0.1148  0.8935  0.1007  -1.5381   0.0000   0.0000   0.0000  -2.9964
  -7.500  -0.0332   0.07297   0.06885  -0.1147  0.8914  0.1020  -1.5167   0.0000   0.0000   0.0000  -3.3751
  -7.400  -0.0342   0.07193   0.06782  -0.1156  0.8892  0.1038  -1.5288   0.0000   0.0000   0.0000  -3.2894
  -6.900  -0.0945   0.04305   0.03767  -0.1463  0.8682  0.0711  -2.6307   0.0000   0.0000   0.0000  -1.3570
  -6.800  -0.0859   0.04241   0.03711  -0.1462  0.8667  0.0714  -2.5780   0.0000   0.0000   0.0000  -1.5154
  -6.700  -0.0759   0.04198   0.03672  -0.1462  0.8656  0.0719  -2.5190   0.0000   0.0000   0.0000  -1.7453
  -6.600  -0.0650   0.04183   0.03663  -0.1461  0.8647  0.0727  -2.4488   0.0000   0.0000   0.0000  -2.0786
  -6.500  -0.0484   0.04523   0.04030  -0.1449  0.8641  0.0853  -2.2209   0.0000   0.0000   0.0000  -2.8468
  -6.400  -0.0449   0.04532   0.04043  -0.1439  0.8609  0.0860  -2.1786   0.0000   0.0000   0.0000  -3.0667
  -6.300  -0.0559   0.03510   0.02901  -0.1472  0.8574  0.0673  -2.6202   0.0000   0.0000   0.0000  -2.4740
  -6.200  -0.0461   0.03397   0.02769  -0.1477  0.8563  0.0678  -2.6039   0.0000   0.0000   0.0000  -3.0626
  -6.100  -0.0122   0.05196   0.04740  -0.1400  0.8570  0.1309  -1.7554   0.0000   0.0000   0.0000  -11.5526
  -6.000  -0.0033   0.05115   0.04662  -0.1395  0.8561  0.1314  -1.7154   0.0000   0.0000   0.0000  -43.4782
  -5.600   0.0089   0.02884   0.02123  -0.1479  0.8469  0.0709  -2.5061   0.0000   0.0000   0.0000  17.4627
  -5.500   0.0115   0.02867   0.02103  -0.1469  0.8431  0.0713  -2.4861   0.0000   0.0000   0.0000  13.3796
  -5.400   0.0213   0.02828   0.02068  -0.1469  0.8415  0.0721  -2.4394   0.0000   0.0000   0.0000   7.3564
  -5.300   0.0326   0.02797   0.02039  -0.1470  0.8403  0.0732  -2.3873   0.0000   0.0000   0.0000   4.9015
  -5.200   0.0445   0.02759   0.01994  -0.1471  0.8393  0.0746  -2.3412   0.0000   0.0000   0.0000   3.6551
  -5.100   0.0571   0.02710   0.01929  -0.1474  0.8385  0.0762  -2.3039   0.0000   0.0000   0.0000   2.9094
  -5.000   0.0701   0.02658   0.01853  -0.1476  0.8378  0.0776  -2.2720   0.0000   0.0000   0.0000   2.4188
  -4.900   0.0715   0.02665   0.01865  -0.1464  0.8335  0.0782  -2.2453   0.0000   0.0000   0.0000   2.3583
  -4.800   0.0823   0.02635   0.01838  -0.1465  0.8321  0.0794  -2.1958   0.0000   0.0000   0.0000   2.0793
  -4.700   0.0943   0.02601   0.01802  -0.1466  0.8310  0.0807  -2.1487   0.0000   0.0000   0.0000   1.8483
  -4.600   0.1068   0.02563   0.01755  -0.1467  0.8301  0.0824  -2.1050   0.0000   0.0000   0.0000   1.6617
  -4.500   0.1198   0.02526   0.01701  -0.1469  0.8293  0.0844  -2.0642   0.0000   0.0000   0.0000   1.5087
  -4.300   0.1334   0.02516   0.01701  -0.1459  0.8239  0.0873  -1.9833   0.0000   0.0000   0.0000   1.3721
  -4.200   0.1450   0.02491   0.01671  -0.1460  0.8226  0.0894  -1.9432   0.0000   0.0000   0.0000   1.2820
  -4.100   0.1574   0.02460   0.01629  -0.1461  0.8216  0.0916  -1.9063   0.0000   0.0000   0.0000   1.2008
  -4.000   0.1698   0.02426   0.01602  -0.1463  0.8208  0.0936  -1.8586   0.0000   0.0000   0.0000   1.1322
  -3.900   0.1827   0.02399   0.01573  -0.1465  0.8200  0.0963  -1.8130   0.0000   0.0000   0.0000   1.0704
  -3.700   0.1962   0.02401   0.01577  -0.1454  0.8144  0.1006  -1.7476   0.0000   0.0000   0.0000   1.0076
  -3.600   0.2081   0.02381   0.01556  -0.1455  0.8132  0.1038  -1.7032   0.0000   0.0000   0.0000   0.9645
  -3.500   0.2205   0.02354   0.01526  -0.1456  0.8122  0.1072  -1.6607   0.0000   0.0000   0.0000   0.9246
  -3.400   0.2331   0.02328   0.01505  -0.1458  0.8114  0.1107  -1.6132   0.0000   0.0000   0.0000   0.8884
  -3.300   0.2462   0.02301   0.01475  -0.1460  0.8107  0.1152  -1.5680   0.0000   0.0000   0.0000   0.8549
  -3.200   0.2488   0.02329   0.01510  -0.1450  0.8064  0.1177  -1.5416   0.0000   0.0000   0.0000   0.8444
  -3.100   0.2596   0.02317   0.01495  -0.1450  0.8048  0.1227  -1.5013   0.0000   0.0000   0.0000   0.8190
  -3.000   0.2716   0.02296   0.01480  -0.1451  0.8036  0.1279  -1.4557   0.0000   0.0000   0.0000   0.7941
  -2.900   0.2841   0.02272   0.01459  -0.1453  0.8026  0.1341  -1.4131   0.0000   0.0000   0.0000   0.7705
  -2.800   0.2970   0.02247   0.01437  -0.1455  0.8019  0.1418  -1.3713   0.0000   0.0000   0.0000   0.7482
  -2.700   0.3103   0.02221   0.01414  -0.1458  0.8012  0.1507  -1.3287   0.0000   0.0000   0.0000   0.7275
  -2.600   0.3124   0.02260   0.01455  -0.1447  0.7965  0.1571  -1.3081   0.0000   0.0000   0.0000   0.7207
  -2.500   0.3236   0.02243   0.01446  -0.1448  0.7950  0.1676  -1.2686   0.0000   0.0000   0.0000   0.7043
  -2.400   0.3359   0.02222   0.01432  -0.1450  0.7939  0.1807  -1.2270   0.0000   0.0000   0.0000   0.6880
  -2.300   0.3488   0.02198   0.01414  -0.1452  0.7930  0.1974  -1.1849   0.0000   0.0000   0.0000   0.6723
  -2.200   0.3619   0.02172   0.01396  -0.1455  0.7922  0.2171  -1.1415   0.0000   0.0000   0.0000   0.6575
  -2.100   0.3752   0.02145   0.01379  -0.1458  0.7916  0.2394  -1.0972   0.0000   0.0000   0.0000   0.6436
  -2.000   0.3770   0.02188   0.01431  -0.1449  0.7866  0.2527  -1.0755   0.0000   0.0000   0.0000   0.6389
  -1.900   0.3887   0.02172   0.01424  -0.1450  0.7852  0.2775  -1.0342   0.0000   0.0000   0.0000   0.6274
  -1.800   0.4010   0.02152   0.01414  -0.1452  0.7841  0.3056  -0.9929   0.0000   0.0000   0.0000   0.6160
  -1.700   0.4138   0.02128   0.01403  -0.1454  0.7832  0.3363  -0.9525   0.0000   0.0000   0.0000   0.6050
  -1.600   0.4269   0.02104   0.01390  -0.1457  0.7825  0.3706  -0.9117   0.0000   0.0000   0.0000   0.5944
  -1.500   0.4399   0.02079   0.01378  -0.1459  0.7818  0.4082  -0.8709   0.0000   0.0000   0.0000   0.5844
  -1.300   0.4527   0.02112   0.01436  -0.1448  0.7753  0.4719  -0.8138   0.0000   0.0000   0.0000   0.5723
  -1.200   0.4645   0.02092   0.01431  -0.1448  0.7742  0.5143  -0.7868   0.0000   0.0000   0.0000   0.5637
  -1.100   0.4765   0.02071   0.01423  -0.1447  0.7733  0.5577  -0.7953   0.0000   0.0000   0.0000   0.5554
  -1.000   0.4884   0.02049   0.01414  -0.1445  0.7726  0.6001  -0.8039   0.0000   0.0000   0.0000   0.5473
  -0.900   0.5001   0.02029   0.01405  -0.1441  0.7720  0.6410  -0.8124   0.0000   0.0000   0.0000   0.5395
  -0.800   0.5000   0.02086   0.01474  -0.1427  0.7664  0.6663  -0.8118   0.0000   0.0000   0.0000   0.5366
  -0.700   0.5098   0.02076   0.01472  -0.1421  0.7651  0.7018  -0.8192   0.0000   0.0000   0.0000   0.5297
  -0.600   0.5200   0.02060   0.01464  -0.1415  0.7641  0.7353  -0.8270   0.0000   0.0000   0.0000   0.5228
  -0.500   0.5302   0.02043   0.01452  -0.1408  0.7632  0.7673  -0.8350   0.0000   0.0000   0.0000   0.5160
  -0.400   0.5400   0.02024   0.01437  -0.1400  0.7625  0.7975  -0.8430   0.0000   0.0000   0.0000   0.5094
  -0.200   0.5463   0.02067   0.01493  -0.1370  0.7557  0.8516  -0.8487   0.0000   0.0000   0.0000   0.5006
  -0.100   0.5543   0.02048   0.01479  -0.1358  0.7545  0.8867  -0.8559   0.0000   0.0000   0.0000   0.4946
   0.000   0.5678   0.02023   0.01455  -0.1356  0.7537  0.9370  -0.8663   0.0000   0.0000   0.0000   0.4883
   0.100   0.5881   0.02001   0.01428  -0.1372  0.7531  1.0000  -0.8804   0.0000   0.0000   0.0000   0.4824
   0.200   0.6032   0.01988   0.01408  -0.1377  0.7525  1.0000  -0.8916   0.0000   0.0000   0.0000   0.4774
   0.400   0.6177   0.02048   0.01462  -0.1372  0.7455  1.0000  -0.9022   0.0000   0.0000   0.0000   0.4708
   0.500   0.6316   0.02038   0.01447  -0.1376  0.7444  1.0000  -0.9129   0.0000   0.0000   0.0000   0.4663
   0.600   0.6460   0.02026   0.01428  -0.1380  0.7436  1.0000  -0.9241   0.0000   0.0000   0.0000   0.4619
   0.700   0.6606   0.02012   0.01408  -0.1384  0.7429  1.0000  -0.9357   0.0000   0.0000   0.0000   0.4577
   0.800   0.6754   0.01997   0.01387  -0.1389  0.7423  1.0000  -0.9474   0.0000   0.0000   0.0000   0.4536
   1.000   0.6887   0.02059   0.01447  -0.1380  0.7350  1.0000  -0.9585   0.0000   0.0000   0.0000   0.4480
   1.100   0.7027   0.02046   0.01429  -0.1383  0.7341  1.0000  -0.9700   0.0000   0.0000   0.0000   0.4443
   1.200   0.7171   0.02031   0.01410  -0.1387  0.7333  1.0000  -0.9821   0.0000   0.0000   0.0000   0.4407
   1.300   0.7317   0.02015   0.01389  -0.1391  0.7326  1.0000  -0.9945   0.0000   0.0000   0.0000   0.4372
   1.500   0.7457   0.02071   0.01443  -0.1382  0.7256  1.0000  -1.0077   0.0000   0.0000   0.0000   0.4322
   1.600   0.7594   0.02059   0.01427  -0.1385  0.7245  1.0000  -1.0196   0.0000   0.0000   0.0000   0.4290
   1.700   0.7736   0.02043   0.01407  -0.1388  0.7236  1.0000  -1.0321   0.0000   0.0000   0.0000   0.4259
   1.800   0.7880   0.02026   0.01386  -0.1391  0.7228  1.0000  -1.0450   0.0000   0.0000   0.0000   0.4230
   1.900   0.8026   0.02009   0.01364  -0.1395  0.7220  1.0000  -1.0583   0.0000   0.0000   0.0000   0.4201
   2.000   0.8031   0.02074   0.01433  -0.1383  0.7161  1.0000  -1.0602   0.0000   0.0000   0.0000   0.4183
   2.100   0.8164   0.02062   0.01418  -0.1385  0.7148  1.0000  -1.0726   0.0000   0.0000   0.0000   0.4156
   2.200   0.8305   0.02045   0.01398  -0.1388  0.7138  1.0000  -1.0857   0.0000   0.0000   0.0000   0.4129
   2.300   0.8449   0.02028   0.01377  -0.1391  0.7128  1.0000  -1.0992   0.0000   0.0000   0.0000   0.4104
   2.400   0.8595   0.02008   0.01354  -0.1395  0.7120  1.0000  -1.1133   0.0000   0.0000   0.0000   0.4078
   2.600   0.8740   0.02055   0.01402  -0.1386  0.7050  1.0000  -1.1296   0.0000   0.0000   0.0000   0.4038
   2.700   0.8878   0.02040   0.01383  -0.1388  0.7038  1.0000  -1.1436   0.0000   0.0000   0.0000   0.4014
   2.800   0.9021   0.02021   0.01362  -0.1391  0.7027  1.0000  -1.1580   0.0000   0.0000   0.0000   0.3992
   2.900   0.9168   0.02001   0.01339  -0.1395  0.7018  1.0000  -1.1728   0.0000   0.0000   0.0000   0.3970
   3.100   0.9320   0.02041   0.01381  -0.1386  0.6949  1.0000  -1.1909   0.0000   0.0000   0.0000   0.3932
   3.200   0.9457   0.02025   0.01363  -0.1388  0.6935  1.0000  -1.2056   0.0000   0.0000   0.0000   0.3912
   3.300   0.9601   0.02005   0.01339  -0.1392  0.6924  1.0000  -1.2211   0.0000   0.0000   0.0000   0.3892
   3.400   0.9750   0.01983   0.01314  -0.1395  0.6914  1.0000  -1.2371   0.0000   0.0000   0.0000   0.3872
   3.500   0.9785   0.02025   0.01360  -0.1386  0.6866  1.0000  -1.2434   0.0000   0.0000   0.0000   0.3856
   3.600   0.9904   0.02018   0.01352  -0.1386  0.6844  1.0000  -1.2572   0.0000   0.0000   0.0000   0.3838
   3.700   1.0043   0.02000   0.01333  -0.1389  0.6829  1.0000  -1.2731   0.0000   0.0000   0.0000   0.3819
   3.800   1.0189   0.01979   0.01309  -0.1392  0.6817  1.0000  -1.2898   0.0000   0.0000   0.0000   0.3802
   3.900   1.0341   0.01956   0.01283  -0.1397  0.6807  1.0000  -1.3074   0.0000   0.0000   0.0000   0.3785
   4.000   1.0364   0.02001   0.01333  -0.1385  0.6754  1.0000  -1.3137   0.0000   0.0000   0.0000   0.3769
   4.100   1.0492   0.01989   0.01320  -0.1386  0.6734  1.0000  -1.3300   0.0000   0.0000   0.0000   0.3753
   4.200   1.0634   0.01970   0.01298  -0.1389  0.6719  1.0000  -1.3478   0.0000   0.0000   0.0000   0.3736
   4.300   1.0785   0.01947   0.01272  -0.1394  0.6707  1.0000  -1.3669   0.0000   0.0000   0.0000   0.3721
   4.400   1.0833   0.01977   0.01306  -0.1385  0.6662  1.0000  -1.3765   0.0000   0.0000   0.0000   0.3705
   4.500   1.0946   0.01973   0.01303  -0.1384  0.6636  1.0000  -1.3923   0.0000   0.0000   0.0000   0.3690
   4.600   1.1085   0.01954   0.01282  -0.1387  0.6618  1.0000  -1.4111   0.0000   0.0000   0.0000   0.3675
   4.700   1.1235   0.01932   0.01257  -0.1391  0.6603  1.0000  -1.4309   0.0000   0.0000   0.0000   0.3661
   4.800   1.1299   0.01953   0.01281  -0.1384  0.6562  1.0000  -1.4429   0.0000   0.0000   0.0000   0.3647
   4.900   1.1403   0.01952   0.01281  -0.1383  0.6532  1.0000  -1.4590   0.0000   0.0000   0.0000   0.3632
   5.000   1.1540   0.01935   0.01262  -0.1385  0.6512  1.0000  -1.4784   0.0000   0.0000   0.0000   0.3619
   5.100   1.1690   0.01912   0.01237  -0.1389  0.6496  1.0000  -1.4996   0.0000   0.0000   0.0000   0.3605
   5.200   1.1747   0.01935   0.01264  -0.1382  0.6452  1.0000  -1.5116   0.0000   0.0000   0.0000   0.3592
   5.300   1.1859   0.01931   0.01260  -0.1381  0.6422  1.0000  -1.5297   0.0000   0.0000   0.0000   0.3578
   5.400   1.1998   0.01912   0.01240  -0.1384  0.6401  1.0000  -1.5521   0.0000   0.0000   0.0000   0.3566
   5.500   1.2153   0.01890   0.01213  -0.1389  0.6384  1.0000  -1.5763   0.0000   0.0000   0.0000   0.3554
   5.600   1.2187   0.01920   0.01250  -0.1377  0.6330  1.0000  -1.5880   0.0000   0.0000   0.0000   0.3540
   5.700   1.2314   0.01908   0.01237  -0.1378  0.6303  1.0000  -1.6102   0.0000   0.0000   0.0000   0.3527
   5.800   1.2463   0.01887   0.01212  -0.1383  0.6283  1.0000  -1.6355   0.0000   0.0000   0.0000   0.3516
   5.900   1.2519   0.01907   0.01237  -0.1374  0.6235  1.0000  -1.6503   0.0000   0.0000   0.0000   0.3503
   6.000   1.2633   0.01901   0.01232  -0.1374  0.6202  1.0000  -1.6722   0.0000   0.0000   0.0000   0.3491
   6.100   1.2777   0.01883   0.01210  -0.1377  0.6178  1.0000  -1.6980   0.0000   0.0000   0.0000   0.3480
   6.200   1.2843   0.01898   0.01229  -0.1370  0.6132  1.0000  -1.7150   0.0000   0.0000   0.0000   0.3467
   6.300   1.2950   0.01894   0.01225  -0.1368  0.6095  1.0000  -1.7376   0.0000   0.0000   0.0000   0.3456
   6.400   1.3093   0.01877   0.01205  -0.1372  0.6069  1.0000  -1.7654   0.0000   0.0000   0.0000   0.3445
   6.500   1.3152   0.01894   0.01226  -0.1364  0.6019  1.0000  -1.7857   0.0000   0.0000   0.0000   0.3433
   6.600   1.3263   0.01889   0.01221  -0.1363  0.5982  1.0000  -1.8138   0.0000   0.0000   0.0000   0.3422
   6.700   1.3406   0.01874   0.01203  -0.1366  0.5954  1.0000  -1.8467   0.0000   0.0000   0.0000   0.3412
   6.800   1.3452   0.01895   0.01230  -0.1356  0.5899  1.0000  -1.8668   0.0000   0.0000   0.0000   0.3399
   6.900   1.3574   0.01887   0.01219  -0.1357  0.5863  1.0000  -1.8991   0.0000   0.0000   0.0000   0.3389
   7.000   1.3661   0.01894   0.01228  -0.1352  0.5819  1.0000  -1.9277   0.0000   0.0000   0.0000   0.3378
   7.100   1.3749   0.01899   0.01234  -0.1348  0.5773  1.0000  -1.9566   0.0000   0.0000   0.0000   0.3367
   7.200   1.3888   0.01887   0.01217  -0.1351  0.5739  1.0000  -1.9952   0.0000   0.0000   0.0000   0.3358
   7.300   1.3931   0.01908   0.01245  -0.1340  0.5682  1.0000  -2.0184   0.0000   0.0000   0.0000   0.3345
   7.400   1.4051   0.01903   0.01236  -0.1341  0.5642  1.0000  -2.0545   0.0000   0.0000   0.0000   0.3336
   7.500   1.4116   0.01917   0.01254  -0.1333  0.5589  1.0000  -2.0815   0.0000   0.0000   0.0000   0.3325
   7.600   1.4217   0.01918   0.01254  -0.1331  0.5542  1.0000  -2.1163   0.0000   0.0000   0.0000   0.3314
   7.700   1.4296   0.01928   0.01264  -0.1325  0.5491  1.0000  -2.1474   0.0000   0.0000   0.0000   0.3304
   7.800   1.4382   0.01934   0.01271  -0.1321  0.5438  1.0000  -2.1811   0.0000   0.0000   0.0000   0.3293
   7.900   1.4466   0.01942   0.01278  -0.1316  0.5387  1.0000  -2.2151   0.0000   0.0000   0.0000   0.3283
   8.000   1.4542   0.01953   0.01289  -0.1310  0.5332  1.0000  -2.2476   0.0000   0.0000   0.0000   0.3273
   8.100   1.4626   0.01962   0.01297  -0.1305  0.5280  1.0000  -2.2818   0.0000   0.0000   0.0000   0.3262
   8.200   1.4696   0.01974   0.01311  -0.1298  0.5223  1.0000  -2.3136   0.0000   0.0000   0.0000   0.3252
   8.300   1.4774   0.01986   0.01322  -0.1293  0.5169  1.0000  -2.3486   0.0000   0.0000   0.0000   0.3242
   8.400   1.4843   0.01999   0.01336  -0.1286  0.5111  1.0000  -2.3821   0.0000   0.0000   0.0000   0.3231
   8.500   1.4913   0.02014   0.01350  -0.1279  0.5054  1.0000  -2.4158   0.0000   0.0000   0.0000   0.3221
   8.600   1.4982   0.02028   0.01363  -0.1272  0.4996  1.0000  -2.4498   0.0000   0.0000   0.0000   0.3211
   8.700   1.5039   0.02046   0.01382  -0.1263  0.4936  1.0000  -2.4813   0.0000   0.0000   0.0000   0.3200
   8.800   1.5114   0.02059   0.01392  -0.1257  0.4879  1.0000  -2.5167   0.0000   0.0000   0.0000   0.3190
   8.900   1.5152   0.02082   0.01417  -0.1246  0.4815  1.0000  -2.5508   0.0000   0.0000   0.0000   0.3179
   9.100   1.5245   0.02122   0.01455  -0.1225  0.4693  1.0000  -2.6286   0.0000   0.0000   0.0000   0.3157
   9.200   1.5302   0.02141   0.01472  -0.1217  0.4632  1.0000  -2.6713   0.0000   0.0000   0.0000   0.3147
   9.300   1.5334   0.02167   0.01499  -0.1205  0.4568  1.0000  -2.7075   0.0000   0.0000   0.0000   0.3136
   9.400   1.5372   0.02194   0.01524  -0.1194  0.4504  1.0000  -2.7455   0.0000   0.0000   0.0000   0.3125
   9.500   1.5420   0.02218   0.01545  -0.1185  0.4443  1.0000  -2.7863   0.0000   0.0000   0.0000   0.3115
   9.600   1.5441   0.02252   0.01581  -0.1172  0.4377  1.0000  -2.8199   0.0000   0.0000   0.0000   0.3104
   9.700   1.5491   0.02278   0.01602  -0.1164  0.4317  1.0000  -2.8616   0.0000   0.0000   0.0000   0.3094
   9.800   1.5508   0.02315   0.01641  -0.1151  0.4251  1.0000  -2.8944   0.0000   0.0000   0.0000   0.3083
   9.900   1.5543   0.02348   0.01673  -0.1141  0.4189  1.0000  -2.9321   0.0000   0.0000   0.0000   0.3073
  10.000   1.5573   0.02383   0.01707  -0.1130  0.4126  1.0000  -2.9688   0.0000   0.0000   0.0000   0.3063
  10.100   1.5594   0.02424   0.01747  -0.1119  0.4062  1.0000  -3.0031   0.0000   0.0000   0.0000   0.3053
  10.200   1.5634   0.02458   0.01778  -0.1110  0.4003  1.0000  -3.0427   0.0000   0.0000   0.0000   0.3043
  10.300   1.5644   0.02504   0.01827  -0.1098  0.3936  1.0000  -3.0740   0.0000   0.0000   0.0000   0.3033
  10.400   1.5673   0.02545   0.01865  -0.1088  0.3876  1.0000  -3.1108   0.0000   0.0000   0.0000   0.3024
  10.500   1.5691   0.02591   0.01911  -0.1077  0.3812  1.0000  -3.1446   0.0000   0.0000   0.0000   0.3014
  10.600   1.5710   0.02638   0.01958  -0.1067  0.3750  1.0000  -3.1787   0.0000   0.0000   0.0000   0.3005
  10.700   1.5734   0.02684   0.02000  -0.1057  0.3690  1.0000  -3.2146   0.0000   0.0000   0.0000   0.2996
  10.800   1.5745   0.02737   0.02056  -0.1046  0.3625  1.0000  -3.2464   0.0000   0.0000   0.0000   0.2987
  10.900   1.5766   0.02786   0.02102  -0.1036  0.3566  1.0000  -3.2815   0.0000   0.0000   0.0000   0.2978
  11.000   1.5777   0.02842   0.02158  -0.1026  0.3502  1.0000  -3.3135   0.0000   0.0000   0.0000   0.2969
  11.100   1.5791   0.02897   0.02213  -0.1016  0.3441  1.0000  -3.3467   0.0000   0.0000   0.0000   0.2960
  11.200   1.5805   0.02953   0.02266  -0.1007  0.3382  1.0000  -3.3811   0.0000   0.0000   0.0000   0.2951
  11.300   1.5814   0.03013   0.02328  -0.0997  0.3319  1.0000  -3.4147   0.0000   0.0000   0.0000   0.2943
  11.400   1.5828   0.03071   0.02383  -0.0987  0.3262  1.0000  -3.4502   0.0000   0.0000   0.0000   0.2934
  11.500   1.5834   0.03136   0.02450  -0.0978  0.3198  1.0000  -3.4829   0.0000   0.0000   0.0000   0.2926
  11.600   1.5843   0.03199   0.02512  -0.0968  0.3140  1.0000  -3.5170   0.0000   0.0000   0.0000   0.2918
  11.700   1.5850   0.03265   0.02577  -0.0959  0.3081  1.0000  -3.5503   0.0000   0.0000   0.0000   0.2909
  11.800   1.5855   0.03333   0.02646  -0.0950  0.3020  1.0000  -3.5830   0.0000   0.0000   0.0000   0.2901
  11.900   1.5860   0.03401   0.02709  -0.0940  0.2966  1.0000  -3.6163   0.0000   0.0000   0.0000   0.2893
  12.000   1.5862   0.03474   0.02785  -0.0932  0.2902  1.0000  -3.6478   0.0000   0.0000   0.0000   0.2886
  12.100   1.5865   0.03546   0.02856  -0.0923  0.2847  1.0000  -3.6802   0.0000   0.0000   0.0000   0.2878
  12.200   1.5865   0.03622   0.02931  -0.0914  0.2788  1.0000  -3.7116   0.0000   0.0000   0.0000   0.2870
  12.300   1.5866   0.03698   0.03008  -0.0905  0.2730  1.0000  -3.7432   0.0000   0.0000   0.0000   0.2863
  12.400   1.5864   0.03776   0.03083  -0.0897  0.2676  1.0000  -3.7742   0.0000   0.0000   0.0000   0.2855
  12.500   1.5862   0.03857   0.03166  -0.0888  0.2616  1.0000  -3.8047   0.0000   0.0000   0.0000   0.2848
  12.600   1.5858   0.03939   0.03245  -0.0880  0.2564  1.0000  -3.8350   0.0000   0.0000   0.0000   0.2841
  12.700   1.5854   0.04023   0.03332  -0.0872  0.2505  1.0000  -3.8649   0.0000   0.0000   0.0000   0.2834
  12.800   1.5850   0.04109   0.03417  -0.0864  0.2451  1.0000  -3.8947   0.0000   0.0000   0.0000   0.2827
  12.900   1.5843   0.04197   0.03504  -0.0856  0.2398  1.0000  -3.9239   0.0000   0.0000   0.0000   0.2820
  13.000   1.5838   0.04287   0.03595  -0.0849  0.2342  1.0000  -3.9534   0.0000   0.0000   0.0000   0.2813
  13.100   1.5829   0.04380   0.03684  -0.0841  0.2294  1.0000  -3.9820   0.0000   0.0000   0.0000   0.2807
  13.200   1.5824   0.04474   0.03781  -0.0835  0.2235  1.0000  -4.0110   0.0000   0.0000   0.0000   0.2800
  13.300   1.5815   0.04570   0.03875  -0.0827  0.2185  1.0000  -4.0393   0.0000   0.0000   0.0000   0.2794
  13.400   1.5805   0.04669   0.03975  -0.0821  0.2132  1.0000  -4.0672   0.0000   0.0000   0.0000   0.2788
  13.500   1.5797   0.04769   0.04074  -0.0814  0.2080  1.0000  -4.0952   0.0000   0.0000   0.0000   0.2782
  13.600   1.5784   0.04873   0.04176  -0.0808  0.2032  1.0000  -4.1221   0.0000   0.0000   0.0000   0.2776
  13.700   1.5776   0.04977   0.04281  -0.0802  0.1979  1.0000  -4.1500   0.0000   0.0000   0.0000   0.2771
  13.800   1.5760   0.05085   0.04385  -0.0796  0.1936  1.0000  -4.1759   0.0000   0.0000   0.0000   0.2765
  13.900   1.5752   0.05193   0.04497  -0.0790  0.1881  1.0000  -4.2033   0.0000   0.0000   0.0000   0.2760
  14.000   1.5738   0.05305   0.04606  -0.0785  0.1836  1.0000  -4.2304   0.0000   0.0000   0.0000   0.2754
  14.100   1.5725   0.05418   0.04721  -0.0780  0.1787  1.0000  -4.2587   0.0000   0.0000   0.0000   0.2749
  14.200   1.5712   0.05532   0.04835  -0.0775  0.1742  1.0000  -4.2865   0.0000   0.0000   0.0000   0.2744
  14.300   1.5696   0.05650   0.04951  -0.0770  0.1698  1.0000  -4.3136   0.0000   0.0000   0.0000   0.2739
  14.400   1.5683   0.05767   0.05069  -0.0765  0.1652  1.0000  -4.3412   0.0000   0.0000   0.0000   0.2735
  14.500   1.5665   0.05888   0.05187  -0.0760  0.1612  1.0000  -4.3676   0.0000   0.0000   0.0000   0.2730
  14.600   1.5653   0.06008   0.05309  -0.0756  0.1567  1.0000  -4.3949   0.0000   0.0000   0.0000   0.2725
  14.700   1.5634   0.06132   0.05430  -0.0752  0.1531  1.0000  -4.4210   0.0000   0.0000   0.0000   0.2721
  14.800   1.5623   0.06254   0.05556  -0.0748  0.1487  1.0000  -4.4481   0.0000   0.0000   0.0000   0.2717
  14.900   1.5604   0.06380   0.05678  -0.0744  0.1453  1.0000  -4.4742   0.0000   0.0000   0.0000   0.2713
  15.000   1.5593   0.06505   0.05806  -0.0741  0.1412  1.0000  -4.5016   0.0000   0.0000   0.0000   0.2709
  15.100   1.5576   0.06632   0.05930  -0.0738  0.1379  1.0000  -4.5299   0.0000   0.0000   0.0000   0.2705
  15.200   1.5564   0.06758   0.06059  -0.0735  0.1341  1.0000  -4.5588   0.0000   0.0000   0.0000   0.2701
  15.300   1.5549   0.06887   0.06186  -0.0732  0.1309  1.0000  -4.5873   0.0000   0.0000   0.0000   0.2697
  15.400   1.5536   0.07013   0.06313  -0.0729  0.1277  1.0000  -4.6160   0.0000   0.0000   0.0000   0.2693
  15.500   1.5523   0.07142   0.06444  -0.0726  0.1244  1.0000  -4.6446   0.0000   0.0000   0.0000   0.2690
  15.600   1.5509   0.07267   0.06565  -0.0724  0.1218  1.0000  -4.6738   0.0000   0.0000   0.0000   0.2686
  15.700   1.5498   0.07398   0.06701  -0.0722  0.1185  1.0000  -4.7025   0.0000   0.0000   0.0000   0.2683
  15.800   1.5486   0.07524   0.06824  -0.0719  0.1161  1.0000  -4.7346   0.0000   0.0000   0.0000   0.2679
  15.900   1.5476   0.07652   0.06956  -0.0717  0.1132  1.0000  -4.7656   0.0000   0.0000   0.0000   0.2676
  16.000   1.5466   0.07782   0.07086  -0.0715  0.1106  1.0000  -4.7971   0.0000   0.0000   0.0000   0.2673
  16.100   1.5459   0.07898   0.07197  -0.0713  0.1084  1.0000  -4.8319   0.0000   0.0000   0.0000   0.2669
  16.200   1.5448   0.08035   0.07341  -0.0712  0.1057  1.0000  -4.8613   0.0000   0.0000   0.0000   0.2666
  16.300   1.5440   0.08161   0.07468  -0.0710  0.1034  1.0000  -4.8941   0.0000   0.0000   0.0000   0.2663
  16.400   1.5437   0.08277   0.07580  -0.0708  0.1014  1.0000  -4.9296   0.0000   0.0000   0.0000   0.2660
  16.500   1.5426   0.08414   0.07724  -0.0707  0.0990  1.0000  -4.9588   0.0000   0.0000   0.0000   0.2657
  16.600   1.5421   0.08538   0.07848  -0.0706  0.0969  1.0000  -4.9927   0.0000   0.0000   0.0000   0.2654
  16.700   1.5423   0.08646   0.07951  -0.0704  0.0951  1.0000  -5.0308   0.0000   0.0000   0.0000   0.2651
  16.800   1.5411   0.08788   0.08101  -0.0704  0.0929  1.0000  -5.0585   0.0000   0.0000   0.0000   0.2649
  16.900   1.5407   0.08911   0.08225  -0.0703  0.0910  1.0000  -5.0924   0.0000   0.0000   0.0000   0.2646
  17.000   1.5413   0.09011   0.08319  -0.0701  0.0893  1.0000  -5.1331   0.0000   0.0000   0.0000   0.2642
  17.100   1.5402   0.09151   0.08466  -0.0701  0.0874  1.0000  -5.1609   0.0000   0.0000   0.0000   0.2640
  17.200   1.5396   0.09282   0.08601  -0.0701  0.0856  1.0000  -5.1921   0.0000   0.0000   0.0000   0.2638
  17.300   1.5399   0.09392   0.08710  -0.0700  0.0840  1.0000  -5.2304   0.0000   0.0000   0.0000   0.2635
  17.400   1.5406   0.09496   0.08811  -0.0699  0.0824  1.0000  -5.2696   0.0000   0.0000   0.0000   0.2631
  17.500   1.5391   0.09645   0.08970  -0.0700  0.0807  1.0000  -5.2946   0.0000   0.0000   0.0000   0.2630
  17.600   1.5389   0.09769   0.09096  -0.0700  0.0791  1.0000  -5.3285   0.0000   0.0000   0.0000   0.2628
  17.700   1.5403   0.09862   0.09183  -0.0699  0.0777  1.0000  -5.3727   0.0000   0.0000   0.0000   0.2624
  17.800   1.5405   0.09979   0.09303  -0.0698  0.0762  1.0000  -5.4070   0.0000   0.0000   0.0000   0.2621
  17.900   1.5392   0.10127   0.09459  -0.0700  0.0748  1.0000  -5.4322   0.0000   0.0000   0.0000   0.2620
  18.000   1.5394   0.10246   0.09580  -0.0700  0.0734  1.0000  -5.4674   0.0000   0.0000   0.0000   0.2618
  18.100   1.5416   0.10326   0.09655  -0.0699  0.0720  1.0000  -5.5151   0.0000   0.0000   0.0000   0.2614
  18.200   1.5430   0.10420   0.09749  -0.0698  0.0708  1.0000  -5.5559   0.0000   0.0000   0.0000   0.2611
  18.300   1.5412   0.10578   0.09917  -0.0700  0.0695  1.0000  -5.5768   0.0000   0.0000   0.0000   0.2610
  18.400   1.5411   0.10704   0.10047  -0.0701  0.0682  1.0000  -5.6090   0.0000   0.0000   0.0000   0.2608
  18.500   1.5428   0.10795   0.10136  -0.0701  0.0670  1.0000  -5.6532   0.0000   0.0000   0.0000   0.2605
  18.600   1.5484   0.10811   0.10141  -0.0697  0.0657  1.0000  -5.7200   0.0000   0.0000   0.0000   0.2598
  18.700   1.5451   0.10997   0.10341  -0.0701  0.0647  1.0000  -5.7305   0.0000   0.0000   0.0000   0.2600
  18.800   1.5436   0.11150   0.10503  -0.0704  0.0636  1.0000  -5.7529   0.0000   0.0000   0.0000   0.2599
  18.900   1.5438   0.11271   0.10627  -0.0705  0.0626  1.0000  -5.7866   0.0000   0.0000   0.0000   0.2598
  19.000   1.5467   0.11342   0.10693  -0.0705  0.0615  1.0000  -5.8374   0.0000   0.0000   0.0000   0.2594
  19.100   1.5524   0.11355   0.10697  -0.0700  0.0603  1.0000  -5.9045   0.0000   0.0000   0.0000   0.2587
  19.200   1.5486   0.11550   0.10905  -0.0706  0.0595  1.0000  -5.9111   0.0000   0.0000   0.0000   0.2589
  19.300   1.5467   0.11712   0.11077  -0.0710  0.0586  1.0000  -5.9296   0.0000   0.0000   0.0000   0.2590
  19.400   1.5464   0.11845   0.11215  -0.0712  0.0577  1.0000  -5.9585   0.0000   0.0000   0.0000   0.2589
  19.500   1.5484   0.11934   0.11303  -0.0713  0.0568  1.0000  -6.0031   0.0000   0.0000   0.0000   0.2586
  19.600   1.5562   0.11909   0.11266  -0.0708  0.0557  1.0000  -6.0842   0.0000   0.0000   0.0000   0.2578
  19.700   1.5568   0.12023   0.11386  -0.0709  0.0550  1.0000  -6.1157   0.0000   0.0000   0.0000   0.2576
  19.800   1.5536   0.12209   0.11584  -0.0715  0.0543  1.0000  -6.1232   0.0000   0.0000   0.0000   0.2578
  19.900   1.5518   0.12372   0.11756  -0.0719  0.0536  1.0000  -6.1396   0.0000   0.0000   0.0000   0.2579
  20.000   1.5514   0.12509   0.11898  -0.0723  0.0529  1.0000  -6.1655   0.0000   0.0000   0.0000   0.2579


