xflr5 v6.57

 Calculated polar for: reaf

 1 1 Reynolds number fixed          Mach number fixed         

 xtrf =   1.000 (top)        1.000 (bottom)
 Mach =   0.000     Re =     0.380 e 6     Ncrit =   9.000

  alpha     CL        CD       CDp       Cm    Top Xtr Bot Xtr   Cpmin    Chinge    XCp    
 ------- -------- --------- --------- -------- ------- ------- -------- --------- ---------
  -9.900  -0.1710   0.09112   0.08790  -0.0862  0.8555  0.0431  -2.1212   0.0000   0.0000   0.0000  -0.2962
  -9.800  -0.1649   0.09052   0.08730  -0.0857  0.8539  0.0432  -2.0620   0.0000   0.0000   0.0000  -0.3125
  -9.700  -0.1592   0.08989   0.08667  -0.0853  0.8523  0.0433  -2.0118   0.0000   0.0000   0.0000  -0.3301
  -9.600  -0.1538   0.08923   0.08600  -0.0852  0.8508  0.0435  -1.9679   0.0000   0.0000   0.0000  -0.3485
  -9.500  -0.1487   0.08852   0.08529  -0.0851  0.8494  0.0436  -1.9293   0.0000   0.0000   0.0000  -0.3676
  -9.400  -0.1441   0.08777   0.08452  -0.0851  0.8481  0.0438  -1.8966   0.0000   0.0000   0.0000  -0.3870
  -9.300  -0.1398   0.08694   0.08368  -0.0852  0.8469  0.0441  -1.8701   0.0000   0.0000   0.0000  -0.4065
  -9.200  -0.1357   0.08601   0.08275  -0.0856  0.8453  0.0444  -1.8495   0.0000   0.0000   0.0000  -0.4284
  -9.100  -0.1322   0.08498   0.08173  -0.0861  0.8436  0.0448  -1.8361   0.0000   0.0000   0.0000  -0.4499
  -9.000  -0.1292   0.08384   0.08058  -0.0867  0.8419  0.0452  -1.8306   0.0000   0.0000   0.0000  -0.4701
  -8.900  -0.1271   0.08254   0.07928  -0.0875  0.8405  0.0458  -1.8354   0.0000   0.0000   0.0000  -0.4879
  -8.800  -0.1266   0.08087   0.07760  -0.0887  0.8391  0.0466  -1.8635   0.0000   0.0000   0.0000  -0.4998
  -8.700  -0.1528   0.07256   0.06932  -0.0981  0.8366  0.0483  -2.2744   0.0000   0.0000   0.0000  -0.4335
  -8.600  -0.1468   0.07217   0.06894  -0.0977  0.8350  0.0484  -2.2170   0.0000   0.0000   0.0000  -0.4577
  -8.500  -0.1410   0.07170   0.06847  -0.0974  0.8335  0.0485  -2.1659   0.0000   0.0000   0.0000  -0.4840
  -8.400  -0.1356   0.07114   0.06790  -0.0973  0.8321  0.0487  -2.1219   0.0000   0.0000   0.0000  -0.5116
  -8.300  -0.1306   0.07047   0.06722  -0.0974  0.8308  0.0489  -2.0845   0.0000   0.0000   0.0000  -0.5406
  -8.200  -0.1261   0.06968   0.06641  -0.0976  0.8295  0.0492  -2.0546   0.0000   0.0000   0.0000  -0.5705
  -8.100  -0.1219   0.06876   0.06549  -0.0982  0.8282  0.0495  -2.0314   0.0000   0.0000   0.0000  -0.6026
  -8.000  -0.1179   0.06771   0.06446  -0.0990  0.8263  0.0500  -2.0144   0.0000   0.0000   0.0000  -0.6377
  -7.900  -0.1151   0.06638   0.06313  -0.1002  0.8246  0.0506  -2.0127   0.0000   0.0000   0.0000  -0.6688
  -7.800  -0.1156   0.06458   0.06134  -0.1022  0.8229  0.0513  -2.0423   0.0000   0.0000   0.0000  -0.6810
  -7.600  -0.1860   0.02152   0.01553  -0.1418  0.8168  0.0364  -3.9266   0.0000   0.0000   0.0000  -0.5466
  -7.500  -0.1759   0.02103   0.01493  -0.1419  0.8153  0.0368  -3.8764   0.0000   0.0000   0.0000  -0.5923
  -7.400  -0.1657   0.02055   0.01434  -0.1420  0.8140  0.0373  -3.8267   0.0000   0.0000   0.0000  -0.6443
  -7.300  -0.1552   0.02013   0.01377  -0.1420  0.8129  0.0378  -3.7763   0.0000   0.0000   0.0000  -0.7044
  -7.200  -0.1445   0.01982   0.01329  -0.1421  0.8118  0.0382  -3.7235   0.0000   0.0000   0.0000  -0.7752
  -7.100  -0.1343   0.01923   0.01267  -0.1422  0.8109  0.0387  -3.6664   0.0000   0.0000   0.0000  -0.8525
  -7.000  -0.1238   0.01892   0.01238  -0.1422  0.8097  0.0392  -3.5965   0.0000   0.0000   0.0000  -0.9462
  -6.900  -0.1132   0.01870   0.01216  -0.1423  0.8081  0.0396  -3.5271   0.0000   0.0000   0.0000  -1.0574
  -6.800  -0.1025   0.01847   0.01191  -0.1424  0.8066  0.0401  -3.4599   0.0000   0.0000   0.0000  -1.1937
  -6.700  -0.0917   0.01822   0.01163  -0.1424  0.8053  0.0406  -3.3950   0.0000   0.0000   0.0000  -1.3632
  -6.600  -0.0808   0.01794   0.01130  -0.1424  0.8041  0.0411  -3.3334   0.0000   0.0000   0.0000  -1.5794
  -6.500  -0.0699   0.01765   0.01095  -0.1425  0.8030  0.0417  -3.2736   0.0000   0.0000   0.0000  -1.8651
  -6.400  -0.0588   0.01738   0.01059  -0.1425  0.8020  0.0422  -3.2150   0.0000   0.0000   0.0000  -2.2616
  -6.300  -0.0476   0.01715   0.01025  -0.1425  0.8011  0.0428  -3.1562   0.0000   0.0000   0.0000  -2.8531
  -6.200  -0.0370   0.01681   0.00988  -0.1425  0.7997  0.0433  -3.1019   0.0000   0.0000   0.0000  -3.7391
  -6.100  -0.0266   0.01649   0.00959  -0.1426  0.7981  0.0438  -3.0445   0.0000   0.0000   0.0000  -5.3055
  -6.000  -0.0157   0.01628   0.00940  -0.1426  0.7967  0.0444  -2.9837   0.0000   0.0000   0.0000  -9.1275
  -5.900  -0.0047   0.01612   0.00922  -0.1426  0.7954  0.0451  -2.9227   0.0000   0.0000   0.0000  -31.1438
  -5.800   0.0065   0.01595   0.00903  -0.1427  0.7942  0.0459  -2.8635   0.0000   0.0000   0.0000  23.0451
  -5.700   0.0177   0.01578   0.00881  -0.1427  0.7932  0.0468  -2.8060   0.0000   0.0000   0.0000   8.5639
  -5.600   0.0291   0.01564   0.00859  -0.1428  0.7922  0.0477  -2.7505   0.0000   0.0000   0.0000   5.3054
  -5.500   0.0403   0.01538   0.00829  -0.1428  0.7913  0.0484  -2.6964   0.0000   0.0000   0.0000   3.9070
  -5.400   0.0507   0.01515   0.00812  -0.1428  0.7896  0.0492  -2.6385   0.0000   0.0000   0.0000   3.1512
  -5.300   0.0616   0.01500   0.00798  -0.1428  0.7881  0.0500  -2.5795   0.0000   0.0000   0.0000   2.6376
  -5.200   0.0727   0.01485   0.00782  -0.1429  0.7867  0.0509  -2.5222   0.0000   0.0000   0.0000   2.2729
  -5.100   0.0839   0.01470   0.00764  -0.1429  0.7855  0.0519  -2.4663   0.0000   0.0000   0.0000   2.0017
  -5.000   0.0953   0.01456   0.00745  -0.1429  0.7843  0.0529  -2.4114   0.0000   0.0000   0.0000   1.7920
  -4.900   0.1064   0.01434   0.00721  -0.1430  0.7833  0.0539  -2.3573   0.0000   0.0000   0.0000   1.6301
  -4.800   0.1176   0.01415   0.00704  -0.1430  0.7824  0.0549  -2.2985   0.0000   0.0000   0.0000   1.4987
  -4.700   0.1289   0.01404   0.00693  -0.1431  0.7813  0.0561  -2.2414   0.0000   0.0000   0.0000   1.3893
  -4.600   0.1398   0.01394   0.00683  -0.1431  0.7796  0.0575  -2.1914   0.0000   0.0000   0.0000   1.2999
  -4.500   0.1510   0.01386   0.00671  -0.1431  0.7781  0.0588  -2.1424   0.0000   0.0000   0.0000   1.2213
  -4.400   0.1619   0.01364   0.00652  -0.1432  0.7767  0.0602  -2.0925   0.0000   0.0000   0.0000   1.1559
  -4.300   0.1731   0.01351   0.00641  -0.1432  0.7754  0.0616  -2.0403   0.0000   0.0000   0.0000   1.0968
  -4.200   0.1845   0.01340   0.00627  -0.1433  0.7743  0.0632  -1.9897   0.0000   0.0000   0.0000   1.0442
  -4.100   0.1961   0.01331   0.00613  -0.1433  0.7733  0.0648  -1.9404   0.0000   0.0000   0.0000   0.9970
  -4.000   0.2074   0.01311   0.00597  -0.1434  0.7723  0.0665  -1.8897   0.0000   0.0000   0.0000   0.9564
  -3.900   0.2186   0.01302   0.00589  -0.1435  0.7710  0.0685  -1.8390   0.0000   0.0000   0.0000   0.9202
  -3.800   0.2296   0.01296   0.00581  -0.1435  0.7693  0.0707  -1.7906   0.0000   0.0000   0.0000   0.8876
  -3.700   0.2406   0.01280   0.00569  -0.1435  0.7678  0.0728  -1.7415   0.0000   0.0000   0.0000   0.8583
  -3.600   0.2519   0.01271   0.00560  -0.1436  0.7664  0.0753  -1.6916   0.0000   0.0000   0.0000   0.8308
  -3.500   0.2634   0.01260   0.00548  -0.1436  0.7652  0.0780  -1.6432   0.0000   0.0000   0.0000   0.8054
  -3.400   0.2748   0.01248   0.00537  -0.1437  0.7641  0.0809  -1.5933   0.0000   0.0000   0.0000   0.7823
  -3.300   0.2865   0.01239   0.00526  -0.1438  0.7631  0.0846  -1.5445   0.0000   0.0000   0.0000   0.7606
  -3.200   0.2982   0.01227   0.00515  -0.1439  0.7622  0.0884  -1.4948   0.0000   0.0000   0.0000   0.7408
  -3.100   0.3090   0.01219   0.00510  -0.1439  0.7604  0.0927  -1.4517   0.0000   0.0000   0.0000   0.7233
  -3.000   0.3201   0.01211   0.00504  -0.1440  0.7587  0.0978  -1.4083   0.0000   0.0000   0.0000   0.7067
  -2.900   0.3313   0.01200   0.00496  -0.1440  0.7572  0.1036  -1.3648   0.0000   0.0000   0.0000   0.6911
  -2.800   0.3427   0.01189   0.00489  -0.1441  0.7559  0.1105  -1.3211   0.0000   0.0000   0.0000   0.6764
  -2.700   0.3543   0.01179   0.00481  -0.1442  0.7547  0.1189  -1.2773   0.0000   0.0000   0.0000   0.6626
  -2.600   0.3659   0.01168   0.00473  -0.1443  0.7536  0.1289  -1.2334   0.0000   0.0000   0.0000   0.6495
  -2.500   0.3776   0.01158   0.00465  -0.1444  0.7526  0.1402  -1.1894   0.0000   0.0000   0.0000   0.6372
  -2.400   0.3888   0.01150   0.00462  -0.1445  0.7511  0.1527  -1.1465   0.0000   0.0000   0.0000   0.6260
  -2.300   0.3997   0.01143   0.00460  -0.1445  0.7493  0.1664  -1.1043   0.0000   0.0000   0.0000   0.6156
  -2.200   0.4109   0.01134   0.00458  -0.1446  0.7477  0.1808  -1.0617   0.0000   0.0000   0.0000   0.6055
  -2.000   0.4338   0.01117   0.00449  -0.1448  0.7450  0.2118  -0.9772   0.0000   0.0000   0.0000   0.5868
  -1.900   0.4454   0.01109   0.00444  -0.1449  0.7438  0.2286  -0.9377   0.0000   0.0000   0.0000   0.5780
  -1.800   0.4571   0.01100   0.00440  -0.1451  0.7428  0.2467  -0.8982   0.0000   0.0000   0.0000   0.5697
  -1.700   0.4685   0.01093   0.00438  -0.1452  0.7414  0.2648  -0.8597   0.0000   0.0000   0.0000   0.5619
  -1.500   0.4904   0.01080   0.00439  -0.1452  0.7378  0.3050  -0.8254   0.0000   0.0000   0.0000   0.5477
  -1.400   0.5017   0.01071   0.00437  -0.1453  0.7363  0.3278  -0.8328   0.0000   0.0000   0.0000   0.5410
  -1.300   0.5132   0.01063   0.00434  -0.1454  0.7349  0.3520  -0.8404   0.0000   0.0000   0.0000   0.5345
  -1.200   0.5247   0.01054   0.00432  -0.1455  0.7337  0.3779  -0.8480   0.0000   0.0000   0.0000   0.5282
  -1.100   0.5364   0.01045   0.00429  -0.1456  0.7326  0.4058  -0.8558   0.0000   0.0000   0.0000   0.5222
  -1.000   0.5476   0.01037   0.00430  -0.1457  0.7311  0.4344  -0.8632   0.0000   0.0000   0.0000   0.5165
  -0.900   0.5582   0.01030   0.00433  -0.1457  0.7291  0.4633  -0.8706   0.0000   0.0000   0.0000   0.5112
  -0.800   0.5692   0.01022   0.00435  -0.1457  0.7274  0.4942  -0.8783   0.0000   0.0000   0.0000   0.5060
  -0.600   0.5915   0.01006   0.00434  -0.1457  0.7244  0.5559  -0.8941   0.0000   0.0000   0.0000   0.4959
  -0.500   0.6028   0.00998   0.00434  -0.1457  0.7232  0.5861  -0.9021   0.0000   0.0000   0.0000   0.4911
  -0.400   0.6142   0.00991   0.00433  -0.1457  0.7221  0.6158  -0.9104   0.0000   0.0000   0.0000   0.4865
  -0.300   0.6244   0.00987   0.00439  -0.1455  0.7201  0.6442  -0.9179   0.0000   0.0000   0.0000   0.4821
  -0.200   0.6348   0.00983   0.00443  -0.1453  0.7181  0.6712  -0.9255   0.0000   0.0000   0.0000   0.4778
  -0.100   0.6455   0.00978   0.00445  -0.1451  0.7164  0.6959  -0.9335   0.0000   0.0000   0.0000   0.4736
   0.000   0.6562   0.00974   0.00445  -0.1450  0.7148  0.7192  -0.9417   0.0000   0.0000   0.0000   0.4695
   0.100   0.6670   0.00969   0.00444  -0.1448  0.7135  0.7407  -0.9502   0.0000   0.0000   0.0000   0.4655
   0.200   0.6779   0.00965   0.00443  -0.1446  0.7122  0.7612  -0.9590   0.0000   0.0000   0.0000   0.4616
   0.300   0.6881   0.00963   0.00445  -0.1443  0.7105  0.7809  -0.9672   0.0000   0.0000   0.0000   0.4579
   0.400   0.6978   0.00961   0.00449  -0.1440  0.7084  0.7996  -0.9751   0.0000   0.0000   0.0000   0.4543
   0.500   0.7075   0.00957   0.00451  -0.1436  0.7065  0.8182  -0.9832   0.0000   0.0000   0.0000   0.4507
   0.600   0.7174   0.00953   0.00450  -0.1432  0.7048  0.8372  -0.9913   0.0000   0.0000   0.0000   0.4472
   0.700   0.7271   0.00948   0.00448  -0.1427  0.7033  0.8565  -0.9996   0.0000   0.0000   0.0000   0.4438
   0.800   0.7365   0.00942   0.00445  -0.1422  0.7020  0.8772  -1.0079   0.0000   0.0000   0.0000   0.4404
   0.900   0.7453   0.00938   0.00444  -0.1415  0.7003  0.9006  -1.0159   0.0000   0.0000   0.0000   0.4371
   1.000   0.7547   0.00933   0.00445  -0.1410  0.6980  0.9289  -1.0243   0.0000   0.0000   0.0000   0.4339
   1.100   0.7712   0.00927   0.00440  -0.1420  0.6960  0.9690  -1.0367   0.0000   0.0000   0.0000   0.4311
   1.200   0.7857   0.00925   0.00435  -0.1427  0.6942  1.0000  -1.0482   0.0000   0.0000   0.0000   0.4284
   1.300   0.7977   0.00926   0.00432  -0.1429  0.6926  1.0000  -1.0587   0.0000   0.0000   0.0000   0.4258
   1.400   0.8100   0.00928   0.00429  -0.1431  0.6912  1.0000  -1.0696   0.0000   0.0000   0.0000   0.4232
   1.500   0.8208   0.00931   0.00433  -0.1431  0.6889  1.0000  -1.0795   0.0000   0.0000   0.0000   0.4208
   1.600   0.8319   0.00934   0.00435  -0.1432  0.6866  1.0000  -1.0896   0.0000   0.0000   0.0000   0.4183
   1.700   0.8434   0.00936   0.00435  -0.1433  0.6846  1.0000  -1.1000   0.0000   0.0000   0.0000   0.4160
   1.800   0.8551   0.00937   0.00433  -0.1434  0.6828  1.0000  -1.1107   0.0000   0.0000   0.0000   0.4136
   1.900   0.8671   0.00939   0.00431  -0.1436  0.6812  1.0000  -1.1221   0.0000   0.0000   0.0000   0.4114
   2.000   0.8783   0.00942   0.00433  -0.1436  0.6792  1.0000  -1.1329   0.0000   0.0000   0.0000   0.4092
   2.100   0.8891   0.00945   0.00436  -0.1436  0.6766  1.0000  -1.1434   0.0000   0.0000   0.0000   0.4070
   2.200   0.9004   0.00947   0.00437  -0.1436  0.6744  1.0000  -1.1544   0.0000   0.0000   0.0000   0.4049
   2.300   0.9120   0.00949   0.00436  -0.1437  0.6724  1.0000  -1.1658   0.0000   0.0000   0.0000   0.4028
   2.400   0.9238   0.00950   0.00434  -0.1438  0.6707  1.0000  -1.1778   0.0000   0.0000   0.0000   0.4008
   2.500   0.9347   0.00954   0.00437  -0.1438  0.6683  1.0000  -1.1892   0.0000   0.0000   0.0000   0.3988
   2.600   0.9455   0.00957   0.00441  -0.1438  0.6657  1.0000  -1.2008   0.0000   0.0000   0.0000   0.3969
   2.700   0.9567   0.00959   0.00442  -0.1438  0.6634  1.0000  -1.2128   0.0000   0.0000   0.0000   0.3950
   2.800   0.9682   0.00961   0.00441  -0.1439  0.6613  1.0000  -1.2251   0.0000   0.0000   0.0000   0.3932
   2.900   0.9800   0.00963   0.00439  -0.1440  0.6596  1.0000  -1.2376   0.0000   0.0000   0.0000   0.3914
   3.000   0.9903   0.00967   0.00446  -0.1439  0.6566  1.0000  -1.2491   0.0000   0.0000   0.0000   0.3896
   3.100   1.0012   0.00970   0.00448  -0.1439  0.6540  1.0000  -1.2616   0.0000   0.0000   0.0000   0.3879
   3.200   1.0124   0.00972   0.00449  -0.1439  0.6516  1.0000  -1.2745   0.0000   0.0000   0.0000   0.3862
   3.300   1.0240   0.00975   0.00448  -0.1440  0.6496  1.0000  -1.2876   0.0000   0.0000   0.0000   0.3845
   3.400   1.0347   0.00979   0.00453  -0.1439  0.6469  1.0000  -1.3003   0.0000   0.0000   0.0000   0.3829
   3.500   1.0453   0.00982   0.00457  -0.1438  0.6439  1.0000  -1.3131   0.0000   0.0000   0.0000   0.3812
   3.600   1.0563   0.00985   0.00459  -0.1438  0.6414  1.0000  -1.3266   0.0000   0.0000   0.0000   0.3797
   3.700   1.0677   0.00988   0.00459  -0.1439  0.6391  1.0000  -1.3406   0.0000   0.0000   0.0000   0.3781
   3.800   1.0783   0.00992   0.00463  -0.1438  0.6363  1.0000  -1.3542   0.0000   0.0000   0.0000   0.3766
   3.900   1.0888   0.00996   0.00468  -0.1437  0.6331  1.0000  -1.3684   0.0000   0.0000   0.0000   0.3751
   4.000   1.0998   0.00999   0.00470  -0.1437  0.6304  1.0000  -1.3833   0.0000   0.0000   0.0000   0.3736
   4.100   1.1111   0.01003   0.00470  -0.1437  0.6281  1.0000  -1.3988   0.0000   0.0000   0.0000   0.3722
   4.200   1.1213   0.01008   0.00477  -0.1436  0.6247  1.0000  -1.4135   0.0000   0.0000   0.0000   0.3707
   4.300   1.1318   0.01012   0.00482  -0.1435  0.6215  1.0000  -1.4287   0.0000   0.0000   0.0000   0.3693
   4.400   1.1427   0.01016   0.00483  -0.1435  0.6187  1.0000  -1.4447   0.0000   0.0000   0.0000   0.3679
   4.500   1.1535   0.01020   0.00487  -0.1434  0.6158  1.0000  -1.4606   0.0000   0.0000   0.0000   0.3666
   4.600   1.1636   0.01025   0.00493  -0.1433  0.6121  1.0000  -1.4761   0.0000   0.0000   0.0000   0.3652
   4.700   1.1742   0.01030   0.00497  -0.1432  0.6089  1.0000  -1.4924   0.0000   0.0000   0.0000   0.3639
   4.800   1.1851   0.01035   0.00498  -0.1431  0.6061  1.0000  -1.5091   0.0000   0.0000   0.0000   0.3626
   4.900   1.1950   0.01040   0.00506  -0.1430  0.6020  1.0000  -1.5250   0.0000   0.0000   0.0000   0.3613
   5.000   1.2053   0.01045   0.00512  -0.1428  0.5984  1.0000  -1.5417   0.0000   0.0000   0.0000   0.3601
   5.100   1.2160   0.01051   0.00514  -0.1428  0.5954  1.0000  -1.5591   0.0000   0.0000   0.0000   0.3588
   5.200   1.2258   0.01057   0.00522  -0.1426  0.5911  1.0000  -1.5768   0.0000   0.0000   0.0000   0.3576
   5.300   1.2360   0.01063   0.00527  -0.1424  0.5873  1.0000  -1.5954   0.0000   0.0000   0.0000   0.3564
   5.400   1.2463   0.01069   0.00532  -0.1423  0.5838  1.0000  -1.6148   0.0000   0.0000   0.0000   0.3552
   5.500   1.2561   0.01076   0.00540  -0.1421  0.5794  1.0000  -1.6339   0.0000   0.0000   0.0000   0.3540
   5.600   1.2662   0.01083   0.00545  -0.1419  0.5756  1.0000  -1.6538   0.0000   0.0000   0.0000   0.3528
   5.700   1.2761   0.01090   0.00553  -0.1417  0.5716  1.0000  -1.6735   0.0000   0.0000   0.0000   0.3516
   5.800   1.2858   0.01098   0.00560  -0.1415  0.5672  1.0000  -1.6935   0.0000   0.0000   0.0000   0.3505
   5.900   1.2958   0.01106   0.00566  -0.1413  0.5634  1.0000  -1.7141   0.0000   0.0000   0.0000   0.3493
   6.000   1.3053   0.01114   0.00575  -0.1411  0.5588  1.0000  -1.7344   0.0000   0.0000   0.0000   0.3482
   6.100   1.3149   0.01122   0.00582  -0.1409  0.5544  1.0000  -1.7554   0.0000   0.0000   0.0000   0.3471
   6.200   1.3244   0.01131   0.00591  -0.1406  0.5500  1.0000  -1.7769   0.0000   0.0000   0.0000   0.3460
   6.300   1.3337   0.01140   0.00600  -0.1403  0.5451  1.0000  -1.8005   0.0000   0.0000   0.0000   0.3449
   6.400   1.3431   0.01151   0.00608  -0.1400  0.5407  1.0000  -1.8262   0.0000   0.0000   0.0000   0.3438
   6.500   1.3521   0.01160   0.00619  -0.1397  0.5354  1.0000  -1.8515   0.0000   0.0000   0.0000   0.3427
   6.600   1.3611   0.01172   0.00627  -0.1394  0.5306  1.0000  -1.8776   0.0000   0.0000   0.0000   0.3416
   6.700   1.3699   0.01182   0.00639  -0.1390  0.5251  1.0000  -1.9047   0.0000   0.0000   0.0000   0.3405
   6.800   1.3786   0.01195   0.00648  -0.1386  0.5200  1.0000  -1.9333   0.0000   0.0000   0.0000   0.3395
   6.900   1.3872   0.01206   0.00660  -0.1383  0.5144  1.0000  -1.9621   0.0000   0.0000   0.0000   0.3384
   7.000   1.3956   0.01220   0.00671  -0.1378  0.5093  1.0000  -1.9919   0.0000   0.0000   0.0000   0.3373
   7.100   1.4040   0.01232   0.00684  -0.1374  0.5036  1.0000  -2.0219   0.0000   0.0000   0.0000   0.3363
   7.200   1.4120   0.01247   0.00696  -0.1369  0.4983  1.0000  -2.0514   0.0000   0.0000   0.0000   0.3352
   7.300   1.4202   0.01260   0.00710  -0.1365  0.4925  1.0000  -2.0813   0.0000   0.0000   0.0000   0.3342
   7.400   1.4278   0.01277   0.00724  -0.1359  0.4871  1.0000  -2.1114   0.0000   0.0000   0.0000   0.3332
   7.500   1.4356   0.01291   0.00738  -0.1354  0.4811  1.0000  -2.1426   0.0000   0.0000   0.0000   0.3321
   7.600   1.4427   0.01309   0.00753  -0.1348  0.4756  1.0000  -2.1740   0.0000   0.0000   0.0000   0.3311
   7.700   1.4501   0.01324   0.00769  -0.1342  0.4692  1.0000  -2.2059   0.0000   0.0000   0.0000   0.3300
   7.800   1.4567   0.01343   0.00785  -0.1335  0.4632  1.0000  -2.2367   0.0000   0.0000   0.0000   0.3290
   7.900   1.4629   0.01362   0.00803  -0.1327  0.4566  1.0000  -2.2669   0.0000   0.0000   0.0000   0.3279
   8.000   1.4684   0.01381   0.00820  -0.1318  0.4502  1.0000  -2.2960   0.0000   0.0000   0.0000   0.3268
   8.100   1.4734   0.01404   0.00840  -0.1308  0.4439  1.0000  -2.3252   0.0000   0.0000   0.0000   0.3256
   8.200   1.4791   0.01424   0.00860  -0.1300  0.4371  1.0000  -2.3563   0.0000   0.0000   0.0000   0.3246
   8.300   1.4840   0.01449   0.00882  -0.1291  0.4308  1.0000  -2.3861   0.0000   0.0000   0.0000   0.3235
   8.400   1.4892   0.01473   0.00905  -0.1282  0.4242  1.0000  -2.4164   0.0000   0.0000   0.0000   0.3224
   8.500   1.4943   0.01499   0.00928  -0.1273  0.4180  1.0000  -2.4467   0.0000   0.0000   0.0000   0.3214
   8.600   1.4988   0.01527   0.00954  -0.1264  0.4118  1.0000  -2.4760   0.0000   0.0000   0.0000   0.3203
   8.700   1.5041   0.01553   0.00980  -0.1256  0.4054  1.0000  -2.5067   0.0000   0.0000   0.0000   0.3193
   8.800   1.5082   0.01585   0.01009  -0.1246  0.3994  1.0000  -2.5393   0.0000   0.0000   0.0000   0.3183
   8.900   1.5131   0.01614   0.01037  -0.1238  0.3928  1.0000  -2.5791   0.0000   0.0000   0.0000   0.3173
   9.000   1.5175   0.01646   0.01068  -0.1229  0.3866  1.0000  -2.6177   0.0000   0.0000   0.0000   0.3163
   9.100   1.5215   0.01681   0.01100  -0.1220  0.3802  1.0000  -2.6558   0.0000   0.0000   0.0000   0.3154
   9.200   1.5261   0.01714   0.01133  -0.1212  0.3738  1.0000  -2.6954   0.0000   0.0000   0.0000   0.3144
   9.300   1.5296   0.01754   0.01170  -0.1203  0.3678  1.0000  -2.7324   0.0000   0.0000   0.0000   0.3134
   9.400   1.5341   0.01789   0.01204  -0.1195  0.3612  1.0000  -2.7723   0.0000   0.0000   0.0000   0.3125
   9.500   1.5380   0.01828   0.01241  -0.1187  0.3552  1.0000  -2.8106   0.0000   0.0000   0.0000   0.3116
   9.600   1.5418   0.01868   0.01280  -0.1178  0.3490  1.0000  -2.8487   0.0000   0.0000   0.0000   0.3107
   9.700   1.5459   0.01908   0.01319  -0.1170  0.3428  1.0000  -2.8879   0.0000   0.0000   0.0000   0.3098
   9.800   1.5489   0.01955   0.01363  -0.1161  0.3369  1.0000  -2.9242   0.0000   0.0000   0.0000   0.3089
   9.900   1.5532   0.01994   0.01402  -0.1154  0.3305  1.0000  -2.9642   0.0000   0.0000   0.0000   0.3080
  10.000   1.5565   0.02041   0.01447  -0.1146  0.3245  1.0000  -3.0017   0.0000   0.0000   0.0000   0.3071
  10.100   1.5599   0.02088   0.01492  -0.1138  0.3183  1.0000  -3.0394   0.0000   0.0000   0.0000   0.3063
  10.200   1.5634   0.02134   0.01537  -0.1130  0.3122  1.0000  -3.0778   0.0000   0.0000   0.0000   0.3054
  10.300   1.5659   0.02187   0.01588  -0.1121  0.3064  1.0000  -3.1133   0.0000   0.0000   0.0000   0.3046
  10.400   1.5697   0.02233   0.01634  -0.1114  0.3000  1.0000  -3.1527   0.0000   0.0000   0.0000   0.3037
  10.500   1.5725   0.02286   0.01685  -0.1106  0.2942  1.0000  -3.1896   0.0000   0.0000   0.0000   0.3029
  10.600   1.5754   0.02339   0.01736  -0.1098  0.2882  1.0000  -3.2265   0.0000   0.0000   0.0000   0.3021
  10.700   1.5785   0.02391   0.01787  -0.1090  0.2823  1.0000  -3.2645   0.0000   0.0000   0.0000   0.3013
  10.800   1.5805   0.02451   0.01844  -0.1082  0.2767  1.0000  -3.2991   0.0000   0.0000   0.0000   0.3005
  10.900   1.5839   0.02502   0.01896  -0.1075  0.2705  1.0000  -3.3391   0.0000   0.0000   0.0000   0.2997
  11.000   1.5862   0.02561   0.01952  -0.1067  0.2649  1.0000  -3.3774   0.0000   0.0000   0.0000   0.2989
  11.100   1.5886   0.02620   0.02010  -0.1059  0.2591  1.0000  -3.4159   0.0000   0.0000   0.0000   0.2981
  11.200   1.5913   0.02678   0.02067  -0.1052  0.2534  1.0000  -3.4554   0.0000   0.0000   0.0000   0.2973
  11.400   1.5957   0.02800   0.02187  -0.1036  0.2422  1.0000  -3.5320   0.0000   0.0000   0.0000   0.2958
  11.500   1.5975   0.02866   0.02251  -0.1028  0.2368  1.0000  -3.5690   0.0000   0.0000   0.0000   0.2950
  11.600   1.5993   0.02931   0.02315  -0.1021  0.2310  1.0000  -3.6065   0.0000   0.0000   0.0000   0.2943
  11.700   1.6014   0.02996   0.02378  -0.1013  0.2253  1.0000  -3.6447   0.0000   0.0000   0.0000   0.2935
  11.800   1.6023   0.03070   0.02450  -0.1005  0.2199  1.0000  -3.6792   0.0000   0.0000   0.0000   0.2928
  11.900   1.6044   0.03135   0.02515  -0.0998  0.2139  1.0000  -3.7177   0.0000   0.0000   0.0000   0.2921
  12.000   1.6057   0.03207   0.02585  -0.0991  0.2083  1.0000  -3.7538   0.0000   0.0000   0.0000   0.2913
  12.100   1.6062   0.03284   0.02660  -0.0983  0.2029  1.0000  -3.7877   0.0000   0.0000   0.0000   0.2906
  12.200   1.6080   0.03353   0.02728  -0.0976  0.1970  1.0000  -3.8254   0.0000   0.0000   0.0000   0.2899
  12.300   1.6089   0.03431   0.02804  -0.0968  0.1916  1.0000  -3.8602   0.0000   0.0000   0.0000   0.2892
  12.400   1.6097   0.03510   0.02881  -0.0961  0.1862  1.0000  -3.8952   0.0000   0.0000   0.0000   0.2885
  12.500   1.6112   0.03585   0.02956  -0.0954  0.1808  1.0000  -3.9321   0.0000   0.0000   0.0000   0.2879
  12.600   1.6117   0.03668   0.03037  -0.0947  0.1759  1.0000  -3.9662   0.0000   0.0000   0.0000   0.2872
  12.700   1.6131   0.03746   0.03114  -0.0941  0.1707  1.0000  -4.0029   0.0000   0.0000   0.0000   0.2865
  12.800   1.6141   0.03826   0.03193  -0.0934  0.1659  1.0000  -4.0386   0.0000   0.0000   0.0000   0.2859
  12.900   1.6147   0.03912   0.03277  -0.0928  0.1612  1.0000  -4.0727   0.0000   0.0000   0.0000   0.2852
  13.000   1.6161   0.03991   0.03356  -0.0922  0.1566  1.0000  -4.1097   0.0000   0.0000   0.0000   0.2846
  13.100   1.6162   0.04082   0.03446  -0.0915  0.1524  1.0000  -4.1424   0.0000   0.0000   0.0000   0.2840
  13.200   1.6178   0.04162   0.03525  -0.0910  0.1478  1.0000  -4.1801   0.0000   0.0000   0.0000   0.2834
  13.300   1.6183   0.04252   0.03615  -0.0904  0.1437  1.0000  -4.2140   0.0000   0.0000   0.0000   0.2828
  13.400   1.6193   0.04339   0.03701  -0.0898  0.1393  1.0000  -4.2498   0.0000   0.0000   0.0000   0.2822
  13.500   1.6199   0.04429   0.03791  -0.0892  0.1353  1.0000  -4.2844   0.0000   0.0000   0.0000   0.2816
  13.600   1.6204   0.04522   0.03883  -0.0887  0.1312  1.0000  -4.3185   0.0000   0.0000   0.0000   0.2810
  13.700   1.6212   0.04613   0.03975  -0.0882  0.1272  1.0000  -4.3535   0.0000   0.0000   0.0000   0.2805
  13.800   1.6213   0.04712   0.04072  -0.0876  0.1234  1.0000  -4.3873   0.0000   0.0000   0.0000   0.2799
  13.900   1.6221   0.04804   0.04165  -0.0871  0.1196  1.0000  -4.4249   0.0000   0.0000   0.0000   0.2794
  14.000   1.6218   0.04906   0.04267  -0.0866  0.1161  1.0000  -4.4587   0.0000   0.0000   0.0000   0.2788
  14.100   1.6226   0.05001   0.04361  -0.0861  0.1126  1.0000  -4.4961   0.0000   0.0000   0.0000   0.2783
  14.200   1.6222   0.05107   0.04467  -0.0856  0.1093  1.0000  -4.5294   0.0000   0.0000   0.0000   0.2778
  14.300   1.6228   0.05204   0.04565  -0.0852  0.1060  1.0000  -4.5664   0.0000   0.0000   0.0000   0.2773
  14.400   1.6224   0.05312   0.04673  -0.0847  0.1030  1.0000  -4.5998   0.0000   0.0000   0.0000   0.2768
  14.500   1.6227   0.05415   0.04777  -0.0843  0.1001  1.0000  -4.6354   0.0000   0.0000   0.0000   0.2763
  14.600   1.6226   0.05522   0.04884  -0.0839  0.0972  1.0000  -4.6726   0.0000   0.0000   0.0000   0.2758
  14.700   1.6220   0.05636   0.04998  -0.0835  0.0947  1.0000  -4.7095   0.0000   0.0000   0.0000   0.2753
  14.800   1.6226   0.05738   0.05102  -0.0831  0.0919  1.0000  -4.7517   0.0000   0.0000   0.0000   0.2749
  14.900   1.6216   0.05858   0.05222  -0.0827  0.0897  1.0000  -4.7869   0.0000   0.0000   0.0000   0.2744
  15.000   1.6219   0.05964   0.05329  -0.0824  0.0872  1.0000  -4.8281   0.0000   0.0000   0.0000   0.2740
  15.100   1.6216   0.06077   0.05444  -0.0820  0.0849  1.0000  -4.8666   0.0000   0.0000   0.0000   0.2735
  15.200   1.6200   0.06205   0.05572  -0.0816  0.0831  1.0000  -4.8992   0.0000   0.0000   0.0000   0.2731
  15.300   1.6207   0.06309   0.05678  -0.0814  0.0808  1.0000  -4.9420   0.0000   0.0000   0.0000   0.2727
  15.400   1.6202   0.06427   0.05798  -0.0810  0.0788  1.0000  -4.9792   0.0000   0.0000   0.0000   0.2723
  15.500   1.6182   0.06562   0.05933  -0.0807  0.0772  1.0000  -5.0106   0.0000   0.0000   0.0000   0.2719
  15.600   1.6188   0.06670   0.06044  -0.0805  0.0752  1.0000  -5.0527   0.0000   0.0000   0.0000   0.2715
  15.700   1.6184   0.06791   0.06166  -0.0802  0.0734  1.0000  -5.0904   0.0000   0.0000   0.0000   0.2712
  15.800   1.6165   0.06928   0.06304  -0.0800  0.0719  1.0000  -5.1219   0.0000   0.0000   0.0000   0.2708
  15.900   1.6161   0.07050   0.06428  -0.0798  0.0703  1.0000  -5.1596   0.0000   0.0000   0.0000   0.2705
  16.000   1.6159   0.07169   0.06550  -0.0796  0.0686  1.0000  -5.1984   0.0000   0.0000   0.0000   0.2701
  16.100   1.6146   0.07304   0.06686  -0.0794  0.0672  1.0000  -5.2322   0.0000   0.0000   0.0000   0.2698
  16.200   1.6121   0.07453   0.06836  -0.0792  0.0660  1.0000  -5.2603   0.0000   0.0000   0.0000   0.2695
  16.300   1.6123   0.07570   0.06956  -0.0790  0.0645  1.0000  -5.3008   0.0000   0.0000   0.0000   0.2692
  16.400   1.6118   0.07696   0.07085  -0.0789  0.0630  1.0000  -5.3380   0.0000   0.0000   0.0000   0.2689
  16.500   1.6101   0.07838   0.07229  -0.0788  0.0618  1.0000  -5.3694   0.0000   0.0000   0.0000   0.2686
  16.600   1.6073   0.07993   0.07384  -0.0787  0.0608  1.0000  -5.3960   0.0000   0.0000   0.0000   0.2684
  16.700   1.6067   0.08122   0.07517  -0.0786  0.0595  1.0000  -5.4324   0.0000   0.0000   0.0000   0.2681
  16.800   1.6063   0.08248   0.07647  -0.0785  0.0582  1.0000  -5.4698   0.0000   0.0000   0.0000   0.2678
  16.900   1.6048   0.08391   0.07793  -0.0784  0.0571  1.0000  -5.5018   0.0000   0.0000   0.0000   0.2676
  17.000   1.6023   0.08547   0.07949  -0.0784  0.0562  1.0000  -5.5293   0.0000   0.0000   0.0000   0.2674
  17.100   1.5989   0.08715   0.08118  -0.0784  0.0554  1.0000  -5.5522   0.0000   0.0000   0.0000   0.2673
  17.200   1.5991   0.08838   0.08246  -0.0784  0.0542  1.0000  -5.5916   0.0000   0.0000   0.0000   0.2670
  17.300   1.5983   0.08974   0.08386  -0.0784  0.0531  1.0000  -5.6266   0.0000   0.0000   0.0000   0.2668
  17.400   1.5965   0.09125   0.08540  -0.0784  0.0522  1.0000  -5.6565   0.0000   0.0000   0.0000   0.2666
  17.500   1.5939   0.09287   0.08702  -0.0785  0.0514  1.0000  -5.6827   0.0000   0.0000   0.0000   0.2665
  17.600   1.5900   0.09465   0.08882  -0.0786  0.0507  1.0000  -5.7022   0.0000   0.0000   0.0000   0.2665
  17.700   1.5894   0.09602   0.09023  -0.0786  0.0497  1.0000  -5.7368   0.0000   0.0000   0.0000   0.2663
  17.800   1.5885   0.09743   0.09168  -0.0787  0.0488  1.0000  -5.7705   0.0000   0.0000   0.0000   0.2661
  17.900   1.5871   0.09891   0.09320  -0.0789  0.0479  1.0000  -5.8015   0.0000   0.0000   0.0000   0.2660
  18.000   1.5849   0.10050   0.09481  -0.0790  0.0471  1.0000  -5.8284   0.0000   0.0000   0.0000   0.2659
  18.100   1.5817   0.10222   0.09654  -0.0792  0.0465  1.0000  -5.8503   0.0000   0.0000   0.0000   0.2659
  18.200   1.5775   0.10407   0.09839  -0.0794  0.0459  1.0000  -5.8668   0.0000   0.0000   0.0000   0.2659
  18.300   1.5771   0.10544   0.09983  -0.0796  0.0450  1.0000  -5.9014   0.0000   0.0000   0.0000   0.2657
  18.400   1.5762   0.10688   0.10131  -0.0797  0.0442  1.0000  -5.9336   0.0000   0.0000   0.0000   0.2656
  18.500   1.5746   0.10842   0.10288  -0.0800  0.0434  1.0000  -5.9628   0.0000   0.0000   0.0000   0.2656
  18.600   1.5727   0.11001   0.10450  -0.0802  0.0427  1.0000  -5.9903   0.0000   0.0000   0.0000   0.2656
  18.700   1.5699   0.11173   0.10624  -0.0806  0.0421  1.0000  -6.0129   0.0000   0.0000   0.0000   0.2656
  18.800   1.5663   0.11354   0.10805  -0.0809  0.0416  1.0000  -6.0311   0.0000   0.0000   0.0000   0.2657
  18.900   1.5646   0.11513   0.10968  -0.0812  0.0409  1.0000  -6.0576   0.0000   0.0000   0.0000   0.2657
  19.000   1.5638   0.11660   0.11120  -0.0815  0.0402  1.0000  -6.0887   0.0000   0.0000   0.0000   0.2656
  19.100   1.5626   0.11812   0.11276  -0.0818  0.0395  1.0000  -6.1183   0.0000   0.0000   0.0000   0.2656
  19.200   1.5610   0.11971   0.11438  -0.0822  0.0389  1.0000  -6.1458   0.0000   0.0000   0.0000   0.2657
  19.300   1.5592   0.12132   0.11601  -0.0826  0.0383  1.0000  -6.1724   0.0000   0.0000   0.0000   0.2657
  19.400   1.5567   0.12303   0.11773  -0.0830  0.0378  1.0000  -6.1950   0.0000   0.0000   0.0000   0.2658
  19.500   1.5537   0.12478   0.11948  -0.0835  0.0374  1.0000  -6.2147   0.0000   0.0000   0.0000   0.2660
  19.600   1.5520   0.12638   0.12111  -0.0839  0.0369  1.0000  -6.2392   0.0000   0.0000   0.0000   0.2660
  19.700   1.5511   0.12789   0.12267  -0.0843  0.0363  1.0000  -6.2682   0.0000   0.0000   0.0000   0.2661
  19.800   1.5501   0.12940   0.12423  -0.0848  0.0357  1.0000  -6.2966   0.0000   0.0000   0.0000   0.2661
  19.900   1.5488   0.13095   0.12582  -0.0852  0.0352  1.0000  -6.3237   0.0000   0.0000   0.0000   0.2662
  20.000   1.5474   0.13252   0.12742  -0.0857  0.0347  1.0000  -6.3504   0.0000   0.0000   0.0000   0.2663


