xflr5 v6.57

 Calculated polar for: reaf

 1 1 Reynolds number fixed          Mach number fixed         

 xtrf =   1.000 (top)        1.000 (bottom)
 Mach =   0.000     Re =     0.340 e 6     Ncrit =   9.000

  alpha     CL        CD       CDp       Cm    Top Xtr Bot Xtr   Cpmin    Chinge    XCp    
 ------- -------- --------- --------- -------- ------- ------- -------- --------- ---------
 -10.000  -0.1448   0.09754   0.09423  -0.0809  0.8660  0.0441  -1.7317   0.0000   0.0000   0.0000  -0.3573
  -9.900  -0.1412   0.09658   0.09326  -0.0811  0.8646  0.0445  -1.7156   0.0000   0.0000   0.0000  -0.3738
  -9.800  -0.1380   0.09553   0.09219  -0.0815  0.8632  0.0449  -1.7064   0.0000   0.0000   0.0000  -0.3909
  -9.700  -0.1350   0.09436   0.09103  -0.0821  0.8613  0.0453  -1.7039   0.0000   0.0000   0.0000  -0.4091
  -9.600  -0.1328   0.09308   0.08976  -0.0828  0.8596  0.0459  -1.7102   0.0000   0.0000   0.0000  -0.4250
  -9.500  -0.1323   0.09152   0.08819  -0.0839  0.8580  0.0467  -1.7384   0.0000   0.0000   0.0000  -0.4355
  -9.400  -0.1542   0.08542   0.08211  -0.0910  0.8560  0.0482  -2.0806   0.0000   0.0000   0.0000  -0.3840
  -9.300  -0.1481   0.08487   0.08155  -0.0904  0.8548  0.0483  -2.0249   0.0000   0.0000   0.0000  -0.4052
  -9.200  -0.1421   0.08429   0.08096  -0.0900  0.8531  0.0485  -1.9747   0.0000   0.0000   0.0000  -0.4301
  -9.100  -0.1365   0.08365   0.08032  -0.0898  0.8514  0.0487  -1.9313   0.0000   0.0000   0.0000  -0.4556
  -9.000  -0.1314   0.08295   0.07961  -0.0897  0.8499  0.0489  -1.8949   0.0000   0.0000   0.0000  -0.4816
  -8.900  -0.1269   0.08216   0.07882  -0.0898  0.8486  0.0492  -1.8657   0.0000   0.0000   0.0000  -0.5076
  -8.800  -0.1230   0.08127   0.07792  -0.0900  0.8473  0.0495  -1.8441   0.0000   0.0000   0.0000  -0.5330
  -8.700  -0.1194   0.08026   0.07690  -0.0905  0.8459  0.0499  -1.8301   0.0000   0.0000   0.0000  -0.5597
  -8.600  -0.1163   0.07909   0.07574  -0.0913  0.8440  0.0504  -1.8251   0.0000   0.0000   0.0000  -0.5869
  -8.500  -0.1144   0.07771   0.07436  -0.0923  0.8423  0.0511  -1.8330   0.0000   0.0000   0.0000  -0.6095
  -8.300  -0.2360   0.03178   0.02717  -0.1397  0.8335  0.0367  -3.9594   0.0000   0.0000   0.0000  -0.3710
  -8.200  -0.2316   0.02969   0.02479  -0.1406  0.8320  0.0368  -3.9905   0.0000   0.0000   0.0000  -0.3865
  -8.100  -0.2255   0.02801   0.02285  -0.1412  0.8307  0.0370  -3.9989   0.0000   0.0000   0.0000  -0.4061
  -8.000  -0.2183   0.02663   0.02123  -0.1416  0.8295  0.0372  -3.9910   0.0000   0.0000   0.0000  -0.4295
  -7.900  -0.2103   0.02547   0.01984  -0.1419  0.8283  0.0374  -3.9725   0.0000   0.0000   0.0000  -0.4565
  -7.800  -0.2018   0.02449   0.01866  -0.1422  0.8265  0.0377  -3.9471   0.0000   0.0000   0.0000  -0.4870
  -7.700  -0.1928   0.02368   0.01764  -0.1424  0.8249  0.0381  -3.9236   0.0000   0.0000   0.0000  -0.5221
  -7.600  -0.1832   0.02302   0.01676  -0.1425  0.8235  0.0384  -3.8915   0.0000   0.0000   0.0000  -0.5624
  -7.500  -0.1737   0.02227   0.01599  -0.1426  0.8223  0.0387  -3.8380   0.0000   0.0000   0.0000  -0.6070
  -7.400  -0.1634   0.02190   0.01563  -0.1427  0.8212  0.0391  -3.7688   0.0000   0.0000   0.0000  -0.6609
  -7.300  -0.1528   0.02165   0.01536  -0.1427  0.8203  0.0395  -3.6971   0.0000   0.0000   0.0000  -0.7238
  -7.200  -0.1422   0.02143   0.01514  -0.1428  0.8192  0.0400  -3.6262   0.0000   0.0000   0.0000  -0.7962
  -7.100  -0.1319   0.02116   0.01485  -0.1429  0.8175  0.0405  -3.5628   0.0000   0.0000   0.0000  -0.8777
  -7.000  -0.1215   0.02081   0.01444  -0.1429  0.8159  0.0411  -3.5056   0.0000   0.0000   0.0000  -0.9736
  -6.900  -0.1111   0.02041   0.01393  -0.1430  0.8146  0.0417  -3.4535   0.0000   0.0000   0.0000  -1.0885
  -6.800  -0.1005   0.01998   0.01338  -0.1430  0.8133  0.0422  -3.4042   0.0000   0.0000   0.0000  -1.2289
  -6.700  -0.0897   0.01959   0.01284  -0.1430  0.8123  0.0427  -3.3551   0.0000   0.0000   0.0000  -1.4057
  -6.600  -0.0789   0.01921   0.01232  -0.1430  0.8113  0.0431  -3.3041   0.0000   0.0000   0.0000  -1.6322
  -6.500  -0.0684   0.01871   0.01183  -0.1431  0.8104  0.0436  -3.2439   0.0000   0.0000   0.0000  -1.9203
  -6.400  -0.0580   0.01843   0.01158  -0.1431  0.8087  0.0441  -3.1797   0.0000   0.0000   0.0000  -2.3063
  -6.300  -0.0474   0.01820   0.01135  -0.1432  0.8071  0.0446  -3.1155   0.0000   0.0000   0.0000  -2.8780
  -6.200  -0.0366   0.01798   0.01110  -0.1432  0.8057  0.0452  -3.0525   0.0000   0.0000   0.0000  -3.8002
  -6.100  -0.0257   0.01774   0.01082  -0.1432  0.8045  0.0458  -2.9945   0.0000   0.0000   0.0000  -5.5237
  -6.000  -0.0146   0.01750   0.01052  -0.1432  0.8033  0.0466  -2.9411   0.0000   0.0000   0.0000  -9.8977
  -5.900  -0.0034   0.01729   0.01022  -0.1432  0.8023  0.0474  -2.8893   0.0000   0.0000   0.0000  -43.8796
  -5.800   0.0079   0.01705   0.00989  -0.1433  0.8014  0.0482  -2.8382   0.0000   0.0000   0.0000  18.9656
  -5.700   0.0184   0.01673   0.00962  -0.1433  0.8001  0.0490  -2.7808   0.0000   0.0000   0.0000   8.2961
  -5.600   0.0290   0.01656   0.00948  -0.1433  0.7984  0.0497  -2.7217   0.0000   0.0000   0.0000   5.3523
  -5.500   0.0399   0.01640   0.00931  -0.1433  0.7969  0.0506  -2.6643   0.0000   0.0000   0.0000   3.9569
  -5.400   0.0509   0.01622   0.00910  -0.1433  0.7956  0.0515  -2.6094   0.0000   0.0000   0.0000   3.1503
  -5.300   0.0621   0.01603   0.00885  -0.1434  0.7944  0.0524  -2.5564   0.0000   0.0000   0.0000   2.6258
  -5.200   0.0736   0.01587   0.00861  -0.1434  0.7933  0.0533  -2.5041   0.0000   0.0000   0.0000   2.2558
  -5.100   0.0844   0.01555   0.00831  -0.1434  0.7924  0.0542  -2.4499   0.0000   0.0000   0.0000   1.9972
  -5.000   0.0957   0.01536   0.00814  -0.1435  0.7915  0.0551  -2.3915   0.0000   0.0000   0.0000   1.7917
  -4.900   0.1063   0.01524   0.00803  -0.1435  0.7898  0.0562  -2.3357   0.0000   0.0000   0.0000   1.6361
  -4.800   0.1172   0.01512   0.00790  -0.1435  0.7882  0.0575  -2.2812   0.0000   0.0000   0.0000   1.5065
  -4.700   0.1285   0.01502   0.00774  -0.1435  0.7867  0.0588  -2.2279   0.0000   0.0000   0.0000   1.3960
  -4.600   0.1393   0.01477   0.00753  -0.1435  0.7854  0.0600  -2.1786   0.0000   0.0000   0.0000   1.3066
  -4.500   0.1505   0.01463   0.00740  -0.1436  0.7843  0.0614  -2.1263   0.0000   0.0000   0.0000   1.2276
  -4.400   0.1619   0.01449   0.00724  -0.1436  0.7833  0.0629  -2.0760   0.0000   0.0000   0.0000   1.1584
  -4.300   0.1735   0.01438   0.00707  -0.1436  0.7823  0.0645  -2.0278   0.0000   0.0000   0.0000   1.0975
  -4.200   0.1845   0.01418   0.00689  -0.1437  0.7812  0.0659  -1.9797   0.0000   0.0000   0.0000   1.0467
  -4.100   0.1951   0.01407   0.00682  -0.1437  0.7793  0.0675  -1.9301   0.0000   0.0000   0.0000   1.0030
  -4.000   0.2061   0.01398   0.00673  -0.1437  0.7778  0.0695  -1.8812   0.0000   0.0000   0.0000   0.9623
  -3.900   0.2173   0.01385   0.00658  -0.1437  0.7764  0.0716  -1.8335   0.0000   0.0000   0.0000   0.9253
  -3.800   0.2286   0.01370   0.00646  -0.1438  0.7752  0.0736  -1.7831   0.0000   0.0000   0.0000   0.8921
  -3.700   0.2401   0.01359   0.00634  -0.1438  0.7741  0.0761  -1.7338   0.0000   0.0000   0.0000   0.8612
  -3.600   0.2516   0.01345   0.00618  -0.1439  0.7731  0.0786  -1.6856   0.0000   0.0000   0.0000   0.8332
  -3.500   0.2632   0.01333   0.00607  -0.1440  0.7722  0.0814  -1.6356   0.0000   0.0000   0.0000   0.8075
  -3.400   0.2740   0.01326   0.00600  -0.1440  0.7705  0.0846  -1.5893   0.0000   0.0000   0.0000   0.7851
  -3.300   0.2848   0.01315   0.00593  -0.1440  0.7687  0.0880  -1.5415   0.0000   0.0000   0.0000   0.7646
  -3.200   0.2960   0.01305   0.00584  -0.1441  0.7672  0.0921  -1.4946   0.0000   0.0000   0.0000   0.7449
  -3.100   0.3074   0.01294   0.00575  -0.1441  0.7659  0.0966  -1.4498   0.0000   0.0000   0.0000   0.7266
  -3.000   0.3188   0.01281   0.00564  -0.1442  0.7647  0.1017  -1.4063   0.0000   0.0000   0.0000   0.7094
  -2.900   0.3305   0.01270   0.00553  -0.1443  0.7636  0.1080  -1.3627   0.0000   0.0000   0.0000   0.6933
  -2.800   0.3422   0.01258   0.00543  -0.1444  0.7627  0.1155  -1.3188   0.0000   0.0000   0.0000   0.6782
  -2.700   0.3534   0.01249   0.00537  -0.1445  0.7613  0.1240  -1.2760   0.0000   0.0000   0.0000   0.6645
  -2.600   0.3641   0.01240   0.00535  -0.1445  0.7594  0.1338  -1.2343   0.0000   0.0000   0.0000   0.6521
  -2.500   0.3752   0.01231   0.00530  -0.1446  0.7578  0.1455  -1.1919   0.0000   0.0000   0.0000   0.6401
  -2.400   0.3865   0.01221   0.00525  -0.1446  0.7563  0.1587  -1.1490   0.0000   0.0000   0.0000   0.6286
  -2.300   0.3980   0.01211   0.00519  -0.1447  0.7551  0.1733  -1.1058   0.0000   0.0000   0.0000   0.6177
  -2.200   0.4097   0.01201   0.00513  -0.1449  0.7539  0.1888  -1.0625   0.0000   0.0000   0.0000   0.6073
  -2.100   0.4214   0.01191   0.00506  -0.1450  0.7529  0.2053  -1.0192   0.0000   0.0000   0.0000   0.5975
  -2.000   0.4328   0.01182   0.00503  -0.1451  0.7517  0.2221  -0.9778   0.0000   0.0000   0.0000   0.5883
  -1.900   0.4434   0.01177   0.00505  -0.1451  0.7497  0.2395  -0.9404   0.0000   0.0000   0.0000   0.5800
  -1.800   0.4545   0.01170   0.00504  -0.1451  0.7479  0.2580  -0.9022   0.0000   0.0000   0.0000   0.5719
  -1.700   0.4658   0.01161   0.00501  -0.1452  0.7464  0.2774  -0.8639   0.0000   0.0000   0.0000   0.5640
  -1.600   0.4773   0.01152   0.00498  -0.1453  0.7451  0.2988  -0.8256   0.0000   0.0000   0.0000   0.5565
  -1.500   0.4889   0.01143   0.00494  -0.1455  0.7439  0.3220  -0.8231   0.0000   0.0000   0.0000   0.5492
  -1.400   0.5006   0.01133   0.00490  -0.1456  0.7429  0.3468  -0.8308   0.0000   0.0000   0.0000   0.5423
  -1.300   0.5119   0.01125   0.00489  -0.1457  0.7416  0.3728  -0.8383   0.0000   0.0000   0.0000   0.5358
  -1.200   0.5224   0.01119   0.00493  -0.1456  0.7395  0.3996  -0.8451   0.0000   0.0000   0.0000   0.5298
  -1.100   0.5333   0.01111   0.00494  -0.1457  0.7377  0.4288  -0.8523   0.0000   0.0000   0.0000   0.5239
  -1.000   0.5445   0.01102   0.00494  -0.1457  0.7362  0.4590  -0.8599   0.0000   0.0000   0.0000   0.5181
  -0.900   0.5558   0.01092   0.00493  -0.1457  0.7348  0.4908  -0.8679   0.0000   0.0000   0.0000   0.5125
  -0.800   0.5672   0.01083   0.00491  -0.1458  0.7336  0.5231  -0.8759   0.0000   0.0000   0.0000   0.5071
  -0.700   0.5786   0.01074   0.00489  -0.1458  0.7325  0.5548  -0.8840   0.0000   0.0000   0.0000   0.5019
  -0.600   0.5892   0.01068   0.00493  -0.1457  0.7308  0.5851  -0.8915   0.0000   0.0000   0.0000   0.4970
  -0.500   0.5994   0.01064   0.00499  -0.1455  0.7287  0.6145  -0.8987   0.0000   0.0000   0.0000   0.4923
  -0.400   0.6100   0.01058   0.00502  -0.1453  0.7270  0.6441  -0.9064   0.0000   0.0000   0.0000   0.4876
  -0.300   0.6208   0.01052   0.00502  -0.1452  0.7254  0.6721  -0.9144   0.0000   0.0000   0.0000   0.4831
  -0.200   0.6316   0.01046   0.00502  -0.1450  0.7240  0.6977  -0.9224   0.0000   0.0000   0.0000   0.4786
  -0.100   0.6426   0.01041   0.00500  -0.1449  0.7228  0.7217  -0.9307   0.0000   0.0000   0.0000   0.4743
   0.000   0.6534   0.01037   0.00500  -0.1447  0.7216  0.7440  -0.9390   0.0000   0.0000   0.0000   0.4701
   0.100   0.6628   0.01036   0.00507  -0.1443  0.7193  0.7647  -0.9465   0.0000   0.0000   0.0000   0.4662
   0.200   0.6726   0.01033   0.00509  -0.1439  0.7173  0.7847  -0.9545   0.0000   0.0000   0.0000   0.4623
   0.300   0.6826   0.01028   0.00509  -0.1435  0.7157  0.8042  -0.9627   0.0000   0.0000   0.0000   0.4585
   0.400   0.6926   0.01023   0.00507  -0.1431  0.7142  0.8239  -0.9709   0.0000   0.0000   0.0000   0.4547
   0.500   0.7025   0.01018   0.00504  -0.1427  0.7129  0.8438  -0.9792   0.0000   0.0000   0.0000   0.4510
   0.600   0.7122   0.01012   0.00500  -0.1422  0.7117  0.8639  -0.9874   0.0000   0.0000   0.0000   0.4474
   0.700   0.7199   0.01010   0.00505  -0.1414  0.7093  0.8858  -0.9944   0.0000   0.0000   0.0000   0.4439
   0.800   0.7285   0.01005   0.00505  -0.1407  0.7072  0.9114  -1.0020   0.0000   0.0000   0.0000   0.4405
   0.900   0.7410   0.00998   0.00499  -0.1407  0.7055  0.9436  -1.0122   0.0000   0.0000   0.0000   0.4372
   1.000   0.7599   0.00991   0.00491  -0.1423  0.7039  1.0000  -1.0260   0.0000   0.0000   0.0000   0.4344
   1.100   0.7722   0.00991   0.00486  -0.1426  0.7025  1.0000  -1.0361   0.0000   0.0000   0.0000   0.4316
   1.200   0.7845   0.00992   0.00483  -0.1428  0.7011  1.0000  -1.0464   0.0000   0.0000   0.0000   0.4289
   1.300   0.7949   0.00997   0.00488  -0.1428  0.6985  1.0000  -1.0557   0.0000   0.0000   0.0000   0.4263
   1.400   0.8062   0.00999   0.00489  -0.1428  0.6963  1.0000  -1.0659   0.0000   0.0000   0.0000   0.4237
   1.500   0.8178   0.01001   0.00488  -0.1429  0.6945  1.0000  -1.0764   0.0000   0.0000   0.0000   0.4212
   1.600   0.8298   0.01001   0.00485  -0.1431  0.6928  1.0000  -1.0871   0.0000   0.0000   0.0000   0.4187
   1.700   0.8421   0.01002   0.00481  -0.1433  0.6914  1.0000  -1.0981   0.0000   0.0000   0.0000   0.4163
   1.800   0.8529   0.01006   0.00485  -0.1433  0.6891  1.0000  -1.1081   0.0000   0.0000   0.0000   0.4140
   1.900   0.8637   0.01009   0.00488  -0.1433  0.6867  1.0000  -1.1186   0.0000   0.0000   0.0000   0.4117
   2.000   0.8751   0.01011   0.00488  -0.1433  0.6846  1.0000  -1.1295   0.0000   0.0000   0.0000   0.4095
   2.100   0.8868   0.01012   0.00486  -0.1435  0.6828  1.0000  -1.1408   0.0000   0.0000   0.0000   0.4073
   2.200   0.8989   0.01013   0.00483  -0.1436  0.6812  1.0000  -1.1524   0.0000   0.0000   0.0000   0.4052
   2.300   0.9099   0.01016   0.00486  -0.1436  0.6790  1.0000  -1.1633   0.0000   0.0000   0.0000   0.4031
   2.400   0.9205   0.01020   0.00490  -0.1436  0.6764  1.0000  -1.1743   0.0000   0.0000   0.0000   0.4011
   2.500   0.9317   0.01021   0.00490  -0.1436  0.6741  1.0000  -1.1860   0.0000   0.0000   0.0000   0.3991
   2.600   0.9434   0.01022   0.00489  -0.1437  0.6721  1.0000  -1.1983   0.0000   0.0000   0.0000   0.3972
   2.700   0.9554   0.01023   0.00486  -0.1438  0.6704  1.0000  -1.2109   0.0000   0.0000   0.0000   0.3953
   2.800   0.9658   0.01028   0.00491  -0.1437  0.6677  1.0000  -1.2223   0.0000   0.0000   0.0000   0.3934
   2.900   0.9765   0.01031   0.00495  -0.1437  0.6651  1.0000  -1.2339   0.0000   0.0000   0.0000   0.3916
   3.000   0.9878   0.01033   0.00495  -0.1437  0.6628  1.0000  -1.2462   0.0000   0.0000   0.0000   0.3898
   3.100   0.9995   0.01034   0.00493  -0.1438  0.6608  1.0000  -1.2594   0.0000   0.0000   0.0000   0.3881
   3.200   1.0108   0.01037   0.00494  -0.1438  0.6587  1.0000  -1.2723   0.0000   0.0000   0.0000   0.3864
   3.300   1.0210   0.01041   0.00500  -0.1437  0.6557  1.0000  -1.2843   0.0000   0.0000   0.0000   0.3847
   3.400   1.0320   0.01044   0.00503  -0.1437  0.6531  1.0000  -1.2972   0.0000   0.0000   0.0000   0.3830
   3.500   1.0434   0.01046   0.00502  -0.1437  0.6508  1.0000  -1.3107   0.0000   0.0000   0.0000   0.3814
   3.600   1.0551   0.01048   0.00500  -0.1438  0.6488  1.0000  -1.3247   0.0000   0.0000   0.0000   0.3798
   3.700   1.0649   0.01053   0.00508  -0.1436  0.6455  1.0000  -1.3373   0.0000   0.0000   0.0000   0.3783
   3.800   1.0757   0.01056   0.00511  -0.1436  0.6426  1.0000  -1.3511   0.0000   0.0000   0.0000   0.3767
   3.900   1.0870   0.01058   0.00511  -0.1436  0.6402  1.0000  -1.3659   0.0000   0.0000   0.0000   0.3752
   4.000   1.0983   0.01061   0.00511  -0.1436  0.6379  1.0000  -1.3812   0.0000   0.0000   0.0000   0.3738
   4.100   1.1082   0.01066   0.00519  -0.1435  0.6345  1.0000  -1.3953   0.0000   0.0000   0.0000   0.3723
   4.200   1.1189   0.01069   0.00523  -0.1434  0.6315  1.0000  -1.4105   0.0000   0.0000   0.0000   0.3708
   4.300   1.1301   0.01072   0.00523  -0.1434  0.6289  1.0000  -1.4263   0.0000   0.0000   0.0000   0.3694
   4.400   1.1407   0.01077   0.00527  -0.1433  0.6260  1.0000  -1.4420   0.0000   0.0000   0.0000   0.3681
   4.500   1.1509   0.01081   0.00533  -0.1432  0.6225  1.0000  -1.4572   0.0000   0.0000   0.0000   0.3667
   4.600   1.1616   0.01085   0.00536  -0.1431  0.6195  1.0000  -1.4733   0.0000   0.0000   0.0000   0.3653
   4.700   1.1729   0.01089   0.00536  -0.1431  0.6169  1.0000  -1.4903   0.0000   0.0000   0.0000   0.3640
   4.800   1.1825   0.01094   0.00545  -0.1429  0.6130  1.0000  -1.5057   0.0000   0.0000   0.0000   0.3627
   4.900   1.1929   0.01099   0.00549  -0.1428  0.6096  1.0000  -1.5220   0.0000   0.0000   0.0000   0.3614
   5.000   1.2039   0.01103   0.00550  -0.1427  0.6067  1.0000  -1.5394   0.0000   0.0000   0.0000   0.3601
   5.100   1.2136   0.01109   0.00558  -0.1425  0.6027  1.0000  -1.5558   0.0000   0.0000   0.0000   0.3589
   5.200   1.2237   0.01114   0.00564  -0.1424  0.5990  1.0000  -1.5738   0.0000   0.0000   0.0000   0.3576
   5.300   1.2345   0.01119   0.00565  -0.1423  0.5958  1.0000  -1.5930   0.0000   0.0000   0.0000   0.3564
   5.400   1.2441   0.01126   0.00574  -0.1420  0.5915  1.0000  -1.6114   0.0000   0.0000   0.0000   0.3552
   5.500   1.2541   0.01132   0.00579  -0.1419  0.5876  1.0000  -1.6307   0.0000   0.0000   0.0000   0.3540
   5.600   1.2645   0.01138   0.00583  -0.1418  0.5842  1.0000  -1.6510   0.0000   0.0000   0.0000   0.3528
   5.700   1.2739   0.01145   0.00593  -0.1415  0.5797  1.0000  -1.6702   0.0000   0.0000   0.0000   0.3516
   5.800   1.2840   0.01152   0.00598  -0.1413  0.5758  1.0000  -1.6904   0.0000   0.0000   0.0000   0.3505
   5.900   1.2938   0.01159   0.00605  -0.1411  0.5718  1.0000  -1.7109   0.0000   0.0000   0.0000   0.3493
   6.000   1.3033   0.01167   0.00614  -0.1409  0.5673  1.0000  -1.7311   0.0000   0.0000   0.0000   0.3482
   6.100   1.3132   0.01175   0.00619  -0.1407  0.5635  1.0000  -1.7525   0.0000   0.0000   0.0000   0.3471
   6.200   1.3225   0.01183   0.00629  -0.1404  0.5586  1.0000  -1.7735   0.0000   0.0000   0.0000   0.3460
   6.300   1.3319   0.01192   0.00636  -0.1401  0.5542  1.0000  -1.7971   0.0000   0.0000   0.0000   0.3449
   6.400   1.3413   0.01201   0.00645  -0.1398  0.5497  1.0000  -1.8227   0.0000   0.0000   0.0000   0.3438
   6.500   1.3504   0.01211   0.00655  -0.1395  0.5447  1.0000  -1.8481   0.0000   0.0000   0.0000   0.3427
   6.600   1.3595   0.01221   0.00663  -0.1392  0.5401  1.0000  -1.8744   0.0000   0.0000   0.0000   0.3416
   6.700   1.3683   0.01232   0.00674  -0.1388  0.5347  1.0000  -1.9010   0.0000   0.0000   0.0000   0.3405
   6.800   1.3772   0.01243   0.00683  -0.1385  0.5300  1.0000  -1.9300   0.0000   0.0000   0.0000   0.3394
   6.900   1.3857   0.01254   0.00695  -0.1380  0.5243  1.0000  -1.9584   0.0000   0.0000   0.0000   0.3384
   7.000   1.3942   0.01267   0.00705  -0.1376  0.5194  1.0000  -1.9884   0.0000   0.0000   0.0000   0.3373
   7.100   1.4025   0.01279   0.00718  -0.1372  0.5136  1.0000  -2.0181   0.0000   0.0000   0.0000   0.3363
   7.300   1.4188   0.01306   0.00744  -0.1363  0.5027  1.0000  -2.0775   0.0000   0.0000   0.0000   0.3342
   7.400   1.4266   0.01322   0.00756  -0.1357  0.4976  1.0000  -2.1080   0.0000   0.0000   0.0000   0.3331
   7.500   1.4343   0.01335   0.00771  -0.1352  0.4916  1.0000  -2.1387   0.0000   0.0000   0.0000   0.3321
   7.600   1.4417   0.01352   0.00785  -0.1346  0.4862  1.0000  -2.1705   0.0000   0.0000   0.0000   0.3310
   7.700   1.4490   0.01368   0.00801  -0.1340  0.4801  1.0000  -2.2022   0.0000   0.0000   0.0000   0.3300
   7.800   1.4559   0.01386   0.00817  -0.1334  0.4744  1.0000  -2.2335   0.0000   0.0000   0.0000   0.3289
   7.900   1.4626   0.01403   0.00833  -0.1327  0.4680  1.0000  -2.2645   0.0000   0.0000   0.0000   0.3279
   8.000   1.4686   0.01422   0.00851  -0.1319  0.4619  1.0000  -2.2945   0.0000   0.0000   0.0000   0.3268
   8.100   1.4737   0.01443   0.00869  -0.1309  0.4555  1.0000  -2.3238   0.0000   0.0000   0.0000   0.3257
   8.200   1.4791   0.01463   0.00889  -0.1300  0.4490  1.0000  -2.3543   0.0000   0.0000   0.0000   0.3246
   8.300   1.4839   0.01487   0.00910  -0.1290  0.4428  1.0000  -2.3839   0.0000   0.0000   0.0000   0.3235
   8.400   1.4891   0.01510   0.00932  -0.1281  0.4360  1.0000  -2.4143   0.0000   0.0000   0.0000   0.3224
   8.500   1.4939   0.01535   0.00955  -0.1272  0.4298  1.0000  -2.4440   0.0000   0.0000   0.0000   0.3213
   8.600   1.4986   0.01562   0.00980  -0.1263  0.4234  1.0000  -2.4735   0.0000   0.0000   0.0000   0.3203
   8.700   1.5034   0.01589   0.01005  -0.1254  0.4170  1.0000  -2.5036   0.0000   0.0000   0.0000   0.3193
   8.900   1.5124   0.01647   0.01061  -0.1236  0.4045  1.0000  -2.5746   0.0000   0.0000   0.0000   0.3172
   9.000   1.5165   0.01680   0.01092  -0.1226  0.3985  1.0000  -2.6126   0.0000   0.0000   0.0000   0.3162
   9.100   1.5208   0.01713   0.01123  -0.1217  0.3920  1.0000  -2.6511   0.0000   0.0000   0.0000   0.3152
   9.200   1.5249   0.01747   0.01156  -0.1209  0.3857  1.0000  -2.6897   0.0000   0.0000   0.0000   0.3142
   9.300   1.5284   0.01785   0.01192  -0.1199  0.3796  1.0000  -2.7267   0.0000   0.0000   0.0000   0.3133
   9.400   1.5328   0.01820   0.01226  -0.1191  0.3731  1.0000  -2.7659   0.0000   0.0000   0.0000   0.3123
   9.500   1.5362   0.01860   0.01264  -0.1182  0.3671  1.0000  -2.8030   0.0000   0.0000   0.0000   0.3114
   9.600   1.5401   0.01899   0.01302  -0.1173  0.3606  1.0000  -2.8415   0.0000   0.0000   0.0000   0.3105
   9.700   1.5439   0.01939   0.01341  -0.1165  0.3546  1.0000  -2.8796   0.0000   0.0000   0.0000   0.3096
   9.800   1.5470   0.01984   0.01384  -0.1156  0.3485  1.0000  -2.9164   0.0000   0.0000   0.0000   0.3086
   9.900   1.5510   0.02025   0.01424  -0.1148  0.3422  1.0000  -2.9554   0.0000   0.0000   0.0000   0.3078
  10.000   1.5538   0.02073   0.01470  -0.1139  0.3363  1.0000  -2.9915   0.0000   0.0000   0.0000   0.3069
  10.100   1.5575   0.02117   0.01514  -0.1132  0.3299  1.0000  -3.0301   0.0000   0.0000   0.0000   0.3060
  10.200   1.5606   0.02165   0.01560  -0.1123  0.3240  1.0000  -3.0673   0.0000   0.0000   0.0000   0.3051
  10.300   1.5634   0.02216   0.01610  -0.1115  0.3179  1.0000  -3.1036   0.0000   0.0000   0.0000   0.3043
  10.400   1.5668   0.02264   0.01657  -0.1107  0.3117  1.0000  -3.1418   0.0000   0.0000   0.0000   0.3034
  10.500   1.5690   0.02320   0.01710  -0.1098  0.3060  1.0000  -3.1768   0.0000   0.0000   0.0000   0.3026
  10.600   1.5723   0.02370   0.01760  -0.1091  0.2997  1.0000  -3.2149   0.0000   0.0000   0.0000   0.3018
  10.700   1.5748   0.02425   0.01813  -0.1082  0.2938  1.0000  -3.2511   0.0000   0.0000   0.0000   0.3010
  10.800   1.5772   0.02482   0.01868  -0.1074  0.2879  1.0000  -3.2868   0.0000   0.0000   0.0000   0.3001
  10.900   1.5801   0.02536   0.01921  -0.1067  0.2819  1.0000  -3.3243   0.0000   0.0000   0.0000   0.2993
  11.000   1.5818   0.02599   0.01982  -0.1058  0.2764  1.0000  -3.3603   0.0000   0.0000   0.0000   0.2985
  11.100   1.5847   0.02653   0.02037  -0.1051  0.2703  1.0000  -3.4004   0.0000   0.0000   0.0000   0.2978
  11.200   1.5867   0.02715   0.02097  -0.1043  0.2647  1.0000  -3.4378   0.0000   0.0000   0.0000   0.2970
  11.300   1.5887   0.02778   0.02159  -0.1035  0.2589  1.0000  -3.4750   0.0000   0.0000   0.0000   0.2962
  11.400   1.5910   0.02838   0.02218  -0.1027  0.2533  1.0000  -3.5137   0.0000   0.0000   0.0000   0.2954
  11.600   1.5948   0.02968   0.02345  -0.1012  0.2421  1.0000  -3.5884   0.0000   0.0000   0.0000   0.2939
  11.700   1.5962   0.03037   0.02413  -0.1004  0.2368  1.0000  -3.6245   0.0000   0.0000   0.0000   0.2932
  11.800   1.5979   0.03105   0.02480  -0.0997  0.2311  1.0000  -3.6613   0.0000   0.0000   0.0000   0.2924
  11.900   1.5995   0.03173   0.02547  -0.0989  0.2255  1.0000  -3.6983   0.0000   0.0000   0.0000   0.2917
  12.100   1.6018   0.03318   0.02690  -0.0974  0.2143  1.0000  -3.7694   0.0000   0.0000   0.0000   0.2903
  12.200   1.6028   0.03394   0.02764  -0.0967  0.2089  1.0000  -3.8043   0.0000   0.0000   0.0000   0.2896
  12.300   1.6034   0.03474   0.02842  -0.0959  0.2033  1.0000  -3.8384   0.0000   0.0000   0.0000   0.2889
  12.400   1.6048   0.03548   0.02916  -0.0952  0.1976  1.0000  -3.8749   0.0000   0.0000   0.0000   0.2882
  12.500   1.6052   0.03632   0.02998  -0.0945  0.1924  1.0000  -3.9083   0.0000   0.0000   0.0000   0.2875
  12.600   1.6062   0.03712   0.03077  -0.0938  0.1869  1.0000  -3.9435   0.0000   0.0000   0.0000   0.2868
  12.700   1.6072   0.03793   0.03156  -0.0932  0.1816  1.0000  -3.9788   0.0000   0.0000   0.0000   0.2862
  12.800   1.6070   0.03883   0.03245  -0.0925  0.1767  1.0000  -4.0105   0.0000   0.0000   0.0000   0.2855
  12.900   1.6085   0.03962   0.03323  -0.0919  0.1714  1.0000  -4.0475   0.0000   0.0000   0.0000   0.2849
  13.000   1.6090   0.04049   0.03409  -0.0912  0.1667  1.0000  -4.0812   0.0000   0.0000   0.0000   0.2843
  13.100   1.6095   0.04138   0.03497  -0.0906  0.1618  1.0000  -4.1152   0.0000   0.0000   0.0000   0.2837
  13.200   1.6104   0.04224   0.03582  -0.0900  0.1572  1.0000  -4.1504   0.0000   0.0000   0.0000   0.2831
  13.300   1.6103   0.04320   0.03677  -0.0894  0.1529  1.0000  -4.1823   0.0000   0.0000   0.0000   0.2825
  13.400   1.6116   0.04404   0.03762  -0.0889  0.1483  1.0000  -4.2186   0.0000   0.0000   0.0000   0.2819
  13.500   1.6113   0.04504   0.03860  -0.0883  0.1443  1.0000  -4.2500   0.0000   0.0000   0.0000   0.2813
  13.600   1.6125   0.04591   0.03948  -0.0878  0.1398  1.0000  -4.2860   0.0000   0.0000   0.0000   0.2807
  13.700   1.6124   0.04691   0.04046  -0.0872  0.1360  1.0000  -4.3180   0.0000   0.0000   0.0000   0.2802
  13.800   1.6130   0.04784   0.04141  -0.0867  0.1318  1.0000  -4.3523   0.0000   0.0000   0.0000   0.2796
  13.900   1.6130   0.04885   0.04241  -0.0862  0.1280  1.0000  -4.3867   0.0000   0.0000   0.0000   0.2791
  14.000   1.6132   0.04984   0.04340  -0.0857  0.1241  1.0000  -4.4219   0.0000   0.0000   0.0000   0.2785
  14.100   1.6132   0.05086   0.04442  -0.0852  0.1205  1.0000  -4.4563   0.0000   0.0000   0.0000   0.2780
  14.200   1.6131   0.05190   0.04546  -0.0847  0.1169  1.0000  -4.4906   0.0000   0.0000   0.0000   0.2775
  14.300   1.6130   0.05295   0.04651  -0.0843  0.1135  1.0000  -4.5247   0.0000   0.0000   0.0000   0.2770
  14.400   1.6128   0.05403   0.04759  -0.0838  0.1102  1.0000  -4.5584   0.0000   0.0000   0.0000   0.2765
  14.500   1.6125   0.05513   0.04869  -0.0834  0.1071  1.0000  -4.5916   0.0000   0.0000   0.0000   0.2761
  14.600   1.6124   0.05621   0.04977  -0.0830  0.1039  1.0000  -4.6255   0.0000   0.0000   0.0000   0.2756
  14.700   1.6115   0.05739   0.05095  -0.0826  0.1013  1.0000  -4.6585   0.0000   0.0000   0.0000   0.2751
  14.800   1.6118   0.05845   0.05203  -0.0822  0.0982  1.0000  -4.6987   0.0000   0.0000   0.0000   0.2747
  14.900   1.6105   0.05968   0.05326  -0.0819  0.0958  1.0000  -4.7325   0.0000   0.0000   0.0000   0.2742
  15.000   1.6107   0.06076   0.05435  -0.0815  0.0932  1.0000  -4.7725   0.0000   0.0000   0.0000   0.2738
  15.100   1.6100   0.06194   0.05554  -0.0812  0.0907  1.0000  -4.8089   0.0000   0.0000   0.0000   0.2734
  15.200   1.6084   0.06323   0.05683  -0.0808  0.0887  1.0000  -4.8414   0.0000   0.0000   0.0000   0.2730
  15.300   1.6089   0.06430   0.05794  -0.0805  0.0863  1.0000  -4.8824   0.0000   0.0000   0.0000   0.2726
  15.400   1.6078   0.06556   0.05920  -0.0802  0.0842  1.0000  -4.9170   0.0000   0.0000   0.0000   0.2722
  15.500   1.6063   0.06688   0.06052  -0.0800  0.0824  1.0000  -4.9496   0.0000   0.0000   0.0000   0.2718
  15.600   1.6066   0.06799   0.06167  -0.0797  0.0803  1.0000  -4.9900   0.0000   0.0000   0.0000   0.2714
  15.700   1.6054   0.06930   0.06298  -0.0795  0.0785  1.0000  -5.0239   0.0000   0.0000   0.0000   0.2711
  15.800   1.6030   0.07074   0.06443  -0.0792  0.0770  1.0000  -5.0525   0.0000   0.0000   0.0000   0.2708
  15.900   1.6036   0.07185   0.06557  -0.0790  0.0750  1.0000  -5.0941   0.0000   0.0000   0.0000   0.2704
  16.000   1.6027   0.07314   0.06689  -0.0788  0.0733  1.0000  -5.1292   0.0000   0.0000   0.0000   0.2701
  16.100   1.6006   0.07458   0.06833  -0.0787  0.0719  1.0000  -5.1591   0.0000   0.0000   0.0000   0.2698
  16.200   1.5995   0.07592   0.06969  -0.0785  0.0705  1.0000  -5.1925   0.0000   0.0000   0.0000   0.2695
  16.300   1.5993   0.07713   0.07094  -0.0784  0.0688  1.0000  -5.2308   0.0000   0.0000   0.0000   0.2692
  16.400   1.5978   0.07852   0.07235  -0.0782  0.0674  1.0000  -5.2628   0.0000   0.0000   0.0000   0.2689
  16.500   1.5951   0.08005   0.07388  -0.0781  0.0663  1.0000  -5.2896   0.0000   0.0000   0.0000   0.2687
  16.600   1.5940   0.08142   0.07527  -0.0780  0.0649  1.0000  -5.3227   0.0000   0.0000   0.0000   0.2684
  16.700   1.5937   0.08268   0.07658  -0.0779  0.0635  1.0000  -5.3600   0.0000   0.0000   0.0000   0.2681
  16.800   1.5922   0.08410   0.07802  -0.0779  0.0622  1.0000  -5.3918   0.0000   0.0000   0.0000   0.2679
  16.900   1.5895   0.08568   0.07961  -0.0779  0.0612  1.0000  -5.4182   0.0000   0.0000   0.0000   0.2677
  17.000   1.5870   0.08725   0.08118  -0.0778  0.0602  1.0000  -5.4447   0.0000   0.0000   0.0000   0.2676
  17.100   1.5870   0.08851   0.08250  -0.0778  0.0589  1.0000  -5.4824   0.0000   0.0000   0.0000   0.2673
  17.200   1.5860   0.08990   0.08392  -0.0778  0.0577  1.0000  -5.5161   0.0000   0.0000   0.0000   0.2671
  17.300   1.5839   0.09145   0.08549  -0.0779  0.0567  1.0000  -5.5443   0.0000   0.0000   0.0000   0.2670
  17.400   1.5808   0.09312   0.08716  -0.0780  0.0559  1.0000  -5.5677   0.0000   0.0000   0.0000   0.2668
  17.500   1.5788   0.09465   0.08872  -0.0780  0.0549  1.0000  -5.5959   0.0000   0.0000   0.0000   0.2667
  17.600   1.5784   0.09600   0.09012  -0.0781  0.0538  1.0000  -5.6309   0.0000   0.0000   0.0000   0.2665
  17.700   1.5772   0.09745   0.09160  -0.0782  0.0528  1.0000  -5.6627   0.0000   0.0000   0.0000   0.2664
  17.800   1.5750   0.09902   0.09319  -0.0783  0.0519  1.0000  -5.6900   0.0000   0.0000   0.0000   0.2663
  17.900   1.5722   0.10068   0.09486  -0.0785  0.0512  1.0000  -5.7135   0.0000   0.0000   0.0000   0.2662
  18.000   1.5685   0.10244   0.09662  -0.0786  0.0505  1.0000  -5.7326   0.0000   0.0000   0.0000   0.2662
  18.100   1.5683   0.10377   0.09802  -0.0788  0.0495  1.0000  -5.7678   0.0000   0.0000   0.0000   0.2660
  18.200   1.5672   0.10524   0.09953  -0.0789  0.0486  1.0000  -5.7985   0.0000   0.0000   0.0000   0.2659
  18.300   1.5656   0.10676   0.10108  -0.0791  0.0478  1.0000  -5.8275   0.0000   0.0000   0.0000   0.2659
  18.400   1.5636   0.10836   0.10270  -0.0794  0.0470  1.0000  -5.8541   0.0000   0.0000   0.0000   0.2658
  18.500   1.5608   0.11005   0.10440  -0.0796  0.0464  1.0000  -5.8767   0.0000   0.0000   0.0000   0.2658
  18.600   1.5577   0.11176   0.10610  -0.0799  0.0458  1.0000  -5.8974   0.0000   0.0000   0.0000   0.2659
  18.700   1.5572   0.11318   0.10759  -0.0802  0.0449  1.0000  -5.9295   0.0000   0.0000   0.0000   0.2658
  18.800   1.5563   0.11466   0.10911  -0.0804  0.0441  1.0000  -5.9598   0.0000   0.0000   0.0000   0.2657
  18.900   1.5549   0.11619   0.11068  -0.0808  0.0434  1.0000  -5.9884   0.0000   0.0000   0.0000   0.2657
  19.000   1.5533   0.11777   0.11228  -0.0811  0.0427  1.0000  -6.0160   0.0000   0.0000   0.0000   0.2658
  19.100   1.5513   0.11938   0.11390  -0.0815  0.0421  1.0000  -6.0418   0.0000   0.0000   0.0000   0.2658
  19.200   1.5487   0.12104   0.11555  -0.0818  0.0416  1.0000  -6.0641   0.0000   0.0000   0.0000   0.2659
  19.300   1.5475   0.12255   0.11710  -0.0822  0.0409  1.0000  -6.0915   0.0000   0.0000   0.0000   0.2659
  19.400   1.5467   0.12405   0.11865  -0.0826  0.0402  1.0000  -6.1208   0.0000   0.0000   0.0000   0.2659
  19.500   1.5456   0.12556   0.12021  -0.0830  0.0396  1.0000  -6.1493   0.0000   0.0000   0.0000   0.2659
  19.600   1.5445   0.12708   0.12176  -0.0834  0.0390  1.0000  -6.1779   0.0000   0.0000   0.0000   0.2660
  19.700   1.5432   0.12863   0.12333  -0.0839  0.0384  1.0000  -6.2055   0.0000   0.0000   0.0000   0.2661
  19.800   1.5417   0.13017   0.12488  -0.0843  0.0379  1.0000  -6.2328   0.0000   0.0000   0.0000   0.2662
  19.900   1.5402   0.13167   0.12637  -0.0847  0.0375  1.0000  -6.2598   0.0000   0.0000   0.0000   0.2662
  20.000   1.5391   0.13312   0.12782  -0.0851  0.0370  1.0000  -6.2871   0.0000   0.0000   0.0000   0.2663


