xflr5 v6.57

 Calculated polar for: rev_root_140

 1 1 Reynolds number fixed          Mach number fixed         

 xtrf =   1.000 (top)        1.000 (bottom)
 Mach =   0.000     Re =     0.300 e 6     Ncrit =   9.000

  alpha     CL        CD       CDp       Cm    Top Xtr Bot Xtr   Cpmin    Chinge    XCp    
 ------- -------- --------- --------- -------- ------- ------- -------- --------- ---------
  -9.700  -0.1042   0.09255   0.08929  -0.0914  0.8978  0.0476  -1.7319   0.0000   0.0000   0.0000  -0.6938
  -9.600  -0.1009   0.09158   0.08832  -0.0917  0.8952  0.0482  -1.7163   0.0000   0.0000   0.0000  -0.7270
  -9.500  -0.0988   0.09041   0.08713  -0.0923  0.8929  0.0491  -1.7172   0.0000   0.0000   0.0000  -0.7524
  -9.400  -0.1242   0.08412   0.08087  -0.1010  0.8877  0.0512  -2.1152   0.0000   0.0000   0.0000  -0.6179
  -9.300  -0.1162   0.08387   0.08060  -0.0994  0.8861  0.0514  -2.0234   0.0000   0.0000   0.0000  -0.6629
  -9.200  -0.1091   0.08351   0.08023  -0.0984  0.8840  0.0516  -1.9506   0.0000   0.0000   0.0000  -0.7133
  -9.100  -0.1028   0.08301   0.07971  -0.0979  0.8816  0.0519  -1.8937   0.0000   0.0000   0.0000  -0.7657
  -9.000  -0.0975   0.08236   0.07905  -0.0976  0.8795  0.0521  -1.8502   0.0000   0.0000   0.0000  -0.8177
  -8.900  -0.0929   0.08159   0.07827  -0.0976  0.8777  0.0525  -1.8178   0.0000   0.0000   0.0000  -0.8686
  -8.800  -0.0888   0.08070   0.07737  -0.0978  0.8752  0.0529  -1.7941   0.0000   0.0000   0.0000  -0.9229
  -8.700  -0.0854   0.07967   0.07634  -0.0983  0.8728  0.0535  -1.7804   0.0000   0.0000   0.0000  -0.9731
  -8.600  -0.0830   0.07846   0.07512  -0.0990  0.8707  0.0542  -1.7788   0.0000   0.0000   0.0000  -1.0155
  -8.500  -0.0825   0.07685   0.07350  -0.1003  0.8685  0.0552  -1.8039   0.0000   0.0000   0.0000  -1.0388
  -8.300  -0.1972   0.03104   0.02623  -0.1502  0.8550  0.0353  -4.0166   0.0000   0.0000   0.0000  -0.5460
  -8.200  -0.1905   0.02943   0.02438  -0.1511  0.8534  0.0353  -4.0137   0.0000   0.0000   0.0000  -0.5786
  -8.100  -0.1830   0.02802   0.02275  -0.1518  0.8518  0.0354  -4.0010   0.0000   0.0000   0.0000  -0.6163
  -8.000  -0.1751   0.02684   0.02131  -0.1524  0.8495  0.0356  -3.9824   0.0000   0.0000   0.0000  -0.6581
  -7.900  -0.1662   0.02592   0.02011  -0.1529  0.8476  0.0360  -3.9630   0.0000   0.0000   0.0000  -0.7093
  -7.800  -0.1574   0.02487   0.01897  -0.1533  0.8460  0.0363  -3.9196   0.0000   0.0000   0.0000  -0.7648
  -7.700  -0.1474   0.02432   0.01842  -0.1535  0.8447  0.0367  -3.8494   0.0000   0.0000   0.0000  -0.8339
  -7.600  -0.1370   0.02400   0.01810  -0.1536  0.8435  0.0371  -3.7716   0.0000   0.0000   0.0000  -0.9164
  -7.500  -0.1272   0.02363   0.01772  -0.1536  0.8414  0.0375  -3.7043   0.0000   0.0000   0.0000  -1.0058
  -7.400  -0.1172   0.02314   0.01716  -0.1538  0.8396  0.0378  -3.6458   0.0000   0.0000   0.0000  -1.1136
  -7.300  -0.1070   0.02257   0.01649  -0.1540  0.8380  0.0381  -3.5929   0.0000   0.0000   0.0000  -1.2448
  -7.200  -0.0965   0.02199   0.01579  -0.1541  0.8366  0.0384  -3.5413   0.0000   0.0000   0.0000  -1.4078
  -7.100  -0.0858   0.02143   0.01511  -0.1543  0.8355  0.0387  -3.4885   0.0000   0.0000   0.0000  -1.6154
  -7.000  -0.0754   0.02092   0.01450  -0.1544  0.8339  0.0391  -3.4360   0.0000   0.0000   0.0000  -1.8734
  -6.900  -0.0652   0.02045   0.01392  -0.1545  0.8320  0.0395  -3.3836   0.0000   0.0000   0.0000  -2.2063
  -6.800  -0.0546   0.02000   0.01336  -0.1546  0.8303  0.0398  -3.3344   0.0000   0.0000   0.0000  -2.6835
  -6.700  -0.0437   0.01958   0.01283  -0.1546  0.8288  0.0402  -3.2878   0.0000   0.0000   0.0000  -3.4171
  -6.600  -0.0324   0.01928   0.01236  -0.1547  0.8274  0.0407  -3.2378   0.0000   0.0000   0.0000  -4.6983
  -6.500  -0.0217   0.01874   0.01182  -0.1548  0.8263  0.0413  -3.1821   0.0000   0.0000   0.0000  -7.1404
  -6.400  -0.0113   0.01844   0.01154  -0.1549  0.8245  0.0419  -3.1182   0.0000   0.0000   0.0000  -13.8654
  -6.300  -0.0009   0.01821   0.01131  -0.1549  0.8225  0.0425  -3.0552   0.0000   0.0000   0.0000  -183.9479
  -6.200   0.0100   0.01797   0.01104  -0.1549  0.8209  0.0431  -2.9943   0.0000   0.0000   0.0000  16.2523
  -6.100   0.0211   0.01770   0.01073  -0.1550  0.8194  0.0438  -2.9358   0.0000   0.0000   0.0000   7.8324
  -6.000   0.0324   0.01742   0.01039  -0.1550  0.8182  0.0444  -2.8798   0.0000   0.0000   0.0000   5.1890
  -5.900   0.0438   0.01714   0.01004  -0.1551  0.8171  0.0450  -2.8249   0.0000   0.0000   0.0000   3.8981
  -5.800   0.0547   0.01692   0.00974  -0.1551  0.8154  0.0456  -2.7720   0.0000   0.0000   0.0000   3.1719
  -5.700   0.0651   0.01659   0.00941  -0.1550  0.8135  0.0462  -2.7185   0.0000   0.0000   0.0000   2.7033
  -5.600   0.0757   0.01631   0.00917  -0.1551  0.8119  0.0470  -2.6581   0.0000   0.0000   0.0000   2.3566
  -5.500   0.0868   0.01610   0.00896  -0.1551  0.8104  0.0478  -2.5963   0.0000   0.0000   0.0000   2.0871
  -5.400   0.0982   0.01590   0.00874  -0.1552  0.8091  0.0487  -2.5358   0.0000   0.0000   0.0000   1.8745
  -5.300   0.1098   0.01570   0.00850  -0.1553  0.8080  0.0498  -2.4768   0.0000   0.0000   0.0000   1.7033
  -5.200   0.1210   0.01557   0.00830  -0.1553  0.8065  0.0511  -2.4236   0.0000   0.0000   0.0000   1.5677
  -5.100   0.1313   0.01531   0.00810  -0.1553  0.8045  0.0523  -2.3720   0.0000   0.0000   0.0000   1.4638
  -5.000   0.1423   0.01516   0.00797  -0.1554  0.8028  0.0538  -2.3169   0.0000   0.0000   0.0000   1.3700
  -4.900   0.1536   0.01501   0.00779  -0.1554  0.8014  0.0555  -2.2655   0.0000   0.0000   0.0000   1.2871
  -4.800   0.1651   0.01481   0.00756  -0.1555  0.8001  0.0573  -2.2166   0.0000   0.0000   0.0000   1.2149
  -4.700   0.1766   0.01461   0.00738  -0.1557  0.7989  0.0592  -2.1622   0.0000   0.0000   0.0000   1.1525
  -4.600   0.1884   0.01446   0.00719  -0.1558  0.7979  0.0617  -2.1110   0.0000   0.0000   0.0000   1.0960
  -4.500   0.1988   0.01427   0.00704  -0.1558  0.7958  0.0642  -2.0630   0.0000   0.0000   0.0000   1.0513
  -4.400   0.2098   0.01413   0.00692  -0.1558  0.7940  0.0673  -2.0119   0.0000   0.0000   0.0000   1.0091
  -4.300   0.2211   0.01395   0.00674  -0.1559  0.7924  0.0708  -1.9613   0.0000   0.0000   0.0000   0.9704
  -4.200   0.2327   0.01382   0.00659  -0.1560  0.7910  0.0751  -1.9090   0.0000   0.0000   0.0000   0.9346
  -4.100   0.2444   0.01365   0.00645  -0.1562  0.7898  0.0796  -1.8559   0.0000   0.0000   0.0000   0.9023
  -4.000   0.2562   0.01352   0.00631  -0.1564  0.7887  0.0848  -1.8074   0.0000   0.0000   0.0000   0.8724
  -3.900   0.2673   0.01341   0.00623  -0.1564  0.7870  0.0906  -1.7607   0.0000   0.0000   0.0000   0.8465
  -3.800   0.2782   0.01332   0.00616  -0.1564  0.7850  0.0970  -1.7139   0.0000   0.0000   0.0000   0.8230
  -3.700   0.2895   0.01321   0.00606  -0.1565  0.7833  0.1041  -1.6658   0.0000   0.0000   0.0000   0.8006
  -3.600   0.3010   0.01308   0.00596  -0.1567  0.7817  0.1119  -1.6167   0.0000   0.0000   0.0000   0.7796
  -3.500   0.3128   0.01296   0.00586  -0.1568  0.7804  0.1206  -1.5668   0.0000   0.0000   0.0000   0.7599
  -3.400   0.3247   0.01284   0.00577  -0.1570  0.7792  0.1302  -1.5164   0.0000   0.0000   0.0000   0.7415
  -3.300   0.3360   0.01275   0.00571  -0.1571  0.7777  0.1408  -1.4675   0.0000   0.0000   0.0000   0.7249
  -3.200   0.3468   0.01268   0.00568  -0.1571  0.7755  0.1522  -1.4199   0.0000   0.0000   0.0000   0.7100
  -3.100   0.3581   0.01259   0.00564  -0.1572  0.7738  0.1645  -1.3711   0.0000   0.0000   0.0000   0.6955
  -3.000   0.3696   0.01250   0.00559  -0.1573  0.7722  0.1777  -1.3218   0.0000   0.0000   0.0000   0.6817
  -2.900   0.3814   0.01242   0.00553  -0.1575  0.7708  0.1918  -1.2723   0.0000   0.0000   0.0000   0.6684
  -2.800   0.3933   0.01233   0.00546  -0.1577  0.7696  0.2053  -1.2229   0.0000   0.0000   0.0000   0.6560
  -2.700   0.4050   0.01226   0.00542  -0.1578  0.7683  0.2189  -1.1743   0.0000   0.0000   0.0000   0.6444
  -2.600   0.4156   0.01221   0.00543  -0.1578  0.7661  0.2322  -1.1285   0.0000   0.0000   0.0000   0.6341
  -2.500   0.4269   0.01216   0.00541  -0.1579  0.7643  0.2460  -1.0818   0.0000   0.0000   0.0000   0.6239
  -2.400   0.4384   0.01209   0.00537  -0.1580  0.7627  0.2597  -1.0384   0.0000   0.0000   0.0000   0.6141
  -2.300   0.4501   0.01202   0.00533  -0.1581  0.7613  0.2743  -0.9951   0.0000   0.0000   0.0000   0.6047
  -2.200   0.4621   0.01196   0.00529  -0.1583  0.7600  0.2899  -0.9517   0.0000   0.0000   0.0000   0.5956
  -2.100   0.4741   0.01189   0.00524  -0.1585  0.7589  0.3057  -0.9085   0.0000   0.0000   0.0000   0.5870
  -2.000   0.4846   0.01186   0.00527  -0.1584  0.7566  0.3213  -0.8687   0.0000   0.0000   0.0000   0.5795
  -1.900   0.4957   0.01182   0.00528  -0.1585  0.7547  0.3384  -0.8281   0.0000   0.0000   0.0000   0.5720
  -1.800   0.5072   0.01175   0.00526  -0.1586  0.7529  0.3564  -0.8267   0.0000   0.0000   0.0000   0.5647
  -1.700   0.5189   0.01169   0.00523  -0.1587  0.7514  0.3752  -0.8348   0.0000   0.0000   0.0000   0.5576
  -1.600   0.5308   0.01162   0.00520  -0.1588  0.7501  0.3936  -0.8429   0.0000   0.0000   0.0000   0.5508
  -1.500   0.5429   0.01156   0.00516  -0.1590  0.7489  0.4131  -0.8513   0.0000   0.0000   0.0000   0.5442
  -1.400   0.5532   0.01153   0.00521  -0.1589  0.7463  0.4310  -0.8583   0.0000   0.0000   0.0000   0.5384
  -1.300   0.5642   0.01148   0.00521  -0.1589  0.7442  0.4497  -0.8659   0.0000   0.0000   0.0000   0.5325
  -1.200   0.5757   0.01142   0.00519  -0.1590  0.7424  0.4696  -0.8738   0.0000   0.0000   0.0000   0.5268
  -1.100   0.5874   0.01135   0.00517  -0.1591  0.7408  0.4912  -0.8819   0.0000   0.0000   0.0000   0.5213
  -1.000   0.5993   0.01128   0.00514  -0.1592  0.7395  0.5138  -0.8909   0.0000   0.0000   0.0000   0.5159
  -0.900   0.6103   0.01123   0.00516  -0.1592  0.7376  0.5374  -0.8997   0.0000   0.0000   0.0000   0.5109
  -0.800   0.6208   0.01120   0.00521  -0.1590  0.7353  0.5619  -0.9081   0.0000   0.0000   0.0000   0.5061
  -0.700   0.6318   0.01115   0.00524  -0.1590  0.7334  0.5869  -0.9168   0.0000   0.0000   0.0000   0.5014
  -0.600   0.6430   0.01110   0.00525  -0.1589  0.7317  0.6123  -0.9258   0.0000   0.0000   0.0000   0.4967
  -0.500   0.6543   0.01104   0.00524  -0.1589  0.7302  0.6366  -0.9349   0.0000   0.0000   0.0000   0.4922
  -0.400   0.6657   0.01100   0.00524  -0.1588  0.7289  0.6598  -0.9441   0.0000   0.0000   0.0000   0.4878
  -0.300   0.6758   0.01099   0.00530  -0.1586  0.7267  0.6817  -0.9525   0.0000   0.0000   0.0000   0.4837
  -0.200   0.6860   0.01098   0.00535  -0.1583  0.7244  0.7026  -0.9611   0.0000   0.0000   0.0000   0.4797
  -0.100   0.6965   0.01096   0.00537  -0.1581  0.7225  0.7230  -0.9699   0.0000   0.0000   0.0000   0.4757
   0.000   0.7073   0.01094   0.00537  -0.1579  0.7208  0.7423  -0.9790   0.0000   0.0000   0.0000   0.4718
   0.100   0.7182   0.01092   0.00536  -0.1577  0.7193  0.7605  -0.9883   0.0000   0.0000   0.0000   0.4680
   0.200   0.7287   0.01091   0.00537  -0.1575  0.7177  0.7767  -0.9972   0.0000   0.0000   0.0000   0.4643
   0.300   0.7380   0.01092   0.00543  -0.1570  0.7151  0.7920  -1.0052   0.0000   0.0000   0.0000   0.4608
   0.400   0.7480   0.01091   0.00544  -0.1567  0.7128  0.8062  -1.0138   0.0000   0.0000   0.0000   0.4574
   0.500   0.7581   0.01089   0.00543  -0.1563  0.7109  0.8193  -1.0226   0.0000   0.0000   0.0000   0.4540
   0.600   0.7683   0.01085   0.00540  -0.1560  0.7092  0.8323  -1.0315   0.0000   0.0000   0.0000   0.4506
   0.700   0.7784   0.01083   0.00537  -0.1556  0.7075  0.8454  -1.0403   0.0000   0.0000   0.0000   0.4474
   0.800   0.7867   0.01083   0.00542  -0.1550  0.7046  0.8590  -1.0481   0.0000   0.0000   0.0000   0.4443
   0.900   0.7952   0.01080   0.00542  -0.1542  0.7023  0.8727  -1.0572   0.0000   0.0000   0.0000   0.4411
   1.000   0.8039   0.01076   0.00538  -0.1536  0.7003  0.8880  -1.0665   0.0000   0.0000   0.0000   0.4380
   1.100   0.8123   0.01070   0.00533  -0.1528  0.6986  0.9043  -1.0757   0.0000   0.0000   0.0000   0.4349
   1.200   0.8201   0.01065   0.00528  -0.1519  0.6968  0.9231  -1.0844   0.0000   0.0000   0.0000   0.4319
   1.300   0.8288   0.01060   0.00527  -0.1513  0.6940  0.9482  -1.0936   0.0000   0.0000   0.0000   0.4291
   1.400   0.8437   0.01054   0.00522  -0.1520  0.6916  1.0000  -1.1066   0.0000   0.0000   0.0000   0.4266
   1.500   0.8562   0.01056   0.00520  -0.1524  0.6897  1.0000  -1.1183   0.0000   0.0000   0.0000   0.4242
   1.600   0.8690   0.01058   0.00517  -0.1527  0.6880  1.0000  -1.1305   0.0000   0.0000   0.0000   0.4219
   1.700   0.8809   0.01062   0.00518  -0.1529  0.6858  1.0000  -1.1420   0.0000   0.0000   0.0000   0.4196
   1.800   0.8920   0.01066   0.00523  -0.1530  0.6830  1.0000  -1.1529   0.0000   0.0000   0.0000   0.4174
   1.900   0.9038   0.01068   0.00523  -0.1532  0.6806  1.0000  -1.1644   0.0000   0.0000   0.0000   0.4152
   2.000   0.9160   0.01069   0.00520  -0.1534  0.6785  1.0000  -1.1763   0.0000   0.0000   0.0000   0.4131
   2.100   0.9286   0.01070   0.00516  -0.1537  0.6767  1.0000  -1.1888   0.0000   0.0000   0.0000   0.4110
   2.200   0.9389   0.01074   0.00522  -0.1536  0.6733  1.0000  -1.2001   0.0000   0.0000   0.0000   0.4089
   2.300   0.9502   0.01076   0.00523  -0.1537  0.6705  1.0000  -1.2133   0.0000   0.0000   0.0000   0.4069
   2.400   0.9621   0.01077   0.00521  -0.1538  0.6681  1.0000  -1.2273   0.0000   0.0000   0.0000   0.4049
   2.500   0.9744   0.01078   0.00517  -0.1540  0.6661  1.0000  -1.2417   0.0000   0.0000   0.0000   0.4030
   2.600   0.9845   0.01082   0.00523  -0.1539  0.6625  1.0000  -1.2542   0.0000   0.0000   0.0000   0.4011
   2.700   0.9957   0.01084   0.00524  -0.1540  0.6596  1.0000  -1.2676   0.0000   0.0000   0.0000   0.3993
   2.800   1.0074   0.01086   0.00523  -0.1541  0.6573  1.0000  -1.2815   0.0000   0.0000   0.0000   0.3974
   2.900   1.0194   0.01088   0.00521  -0.1542  0.6552  1.0000  -1.2957   0.0000   0.0000   0.0000   0.3957
   3.000   1.0296   0.01093   0.00528  -0.1541  0.6518  1.0000  -1.3084   0.0000   0.0000   0.0000   0.3939
   3.100   1.0407   0.01096   0.00530  -0.1541  0.6490  1.0000  -1.3219   0.0000   0.0000   0.0000   0.3922
   3.200   1.0523   0.01098   0.00530  -0.1542  0.6466  1.0000  -1.3358   0.0000   0.0000   0.0000   0.3905
   3.300   1.0640   0.01101   0.00530  -0.1543  0.6443  1.0000  -1.3498   0.0000   0.0000   0.0000   0.3889
   3.400   1.0741   0.01106   0.00537  -0.1542  0.6407  1.0000  -1.3626   0.0000   0.0000   0.0000   0.3872
   3.500   1.0851   0.01109   0.00539  -0.1542  0.6376  1.0000  -1.3762   0.0000   0.0000   0.0000   0.3856
   3.600   1.0967   0.01111   0.00538  -0.1543  0.6351  1.0000  -1.3902   0.0000   0.0000   0.0000   0.3841
   3.700   1.1072   0.01116   0.00542  -0.1542  0.6317  1.0000  -1.4035   0.0000   0.0000   0.0000   0.3825
   3.800   1.1177   0.01120   0.00547  -0.1541  0.6281  1.0000  -1.4171   0.0000   0.0000   0.0000   0.3810
   3.900   1.1289   0.01123   0.00547  -0.1541  0.6251  1.0000  -1.4313   0.0000   0.0000   0.0000   0.3795
   4.000   1.1397   0.01127   0.00550  -0.1540  0.6218  1.0000  -1.4462   0.0000   0.0000   0.0000   0.3780
   4.100   1.1499   0.01132   0.00556  -0.1539  0.6179  1.0000  -1.4609   0.0000   0.0000   0.0000   0.3765
   4.200   1.1608   0.01136   0.00558  -0.1539  0.6146  1.0000  -1.4764   0.0000   0.0000   0.0000   0.3751
   4.300   1.1717   0.01141   0.00561  -0.1538  0.6115  1.0000  -1.4923   0.0000   0.0000   0.0000   0.3737
   4.400   1.1817   0.01147   0.00568  -0.1537  0.6074  1.0000  -1.5075   0.0000   0.0000   0.0000   0.3723
   4.500   1.1924   0.01151   0.00571  -0.1536  0.6041  1.0000  -1.5233   0.0000   0.0000   0.0000   0.3710
   4.600   1.2033   0.01157   0.00574  -0.1536  0.6010  1.0000  -1.5395   0.0000   0.0000   0.0000   0.3696
   4.700   1.2132   0.01163   0.00583  -0.1534  0.5969  1.0000  -1.5548   0.0000   0.0000   0.0000   0.3683
   4.800   1.2238   0.01169   0.00588  -0.1533  0.5934  1.0000  -1.5717   0.0000   0.0000   0.0000   0.3670
   4.900   1.2346   0.01176   0.00591  -0.1533  0.5903  1.0000  -1.5888   0.0000   0.0000   0.0000   0.3657
   5.000   1.2443   0.01183   0.00600  -0.1531  0.5860  1.0000  -1.6050   0.0000   0.0000   0.0000   0.3644
   5.100   1.2547   0.01189   0.00605  -0.1529  0.5824  1.0000  -1.6218   0.0000   0.0000   0.0000   0.3632
   5.200   1.2651   0.01197   0.00610  -0.1528  0.5788  1.0000  -1.6388   0.0000   0.0000   0.0000   0.3619
   5.300   1.2748   0.01204   0.00620  -0.1526  0.5744  1.0000  -1.6560   0.0000   0.0000   0.0000   0.3607
   5.400   1.2851   0.01211   0.00624  -0.1525  0.5706  1.0000  -1.6753   0.0000   0.0000   0.0000   0.3595
   5.500   1.2949   0.01220   0.00633  -0.1523  0.5663  1.0000  -1.6946   0.0000   0.0000   0.0000   0.3583
   5.600   1.3046   0.01228   0.00641  -0.1520  0.5617  1.0000  -1.7140   0.0000   0.0000   0.0000   0.3571
   5.700   1.3147   0.01236   0.00646  -0.1519  0.5577  1.0000  -1.7339   0.0000   0.0000   0.0000   0.3559
   5.800   1.3239   0.01245   0.00657  -0.1516  0.5527  1.0000  -1.7530   0.0000   0.0000   0.0000   0.3547
   5.900   1.3337   0.01255   0.00663  -0.1514  0.5486  1.0000  -1.7728   0.0000   0.0000   0.0000   0.3536
   6.000   1.3432   0.01264   0.00674  -0.1511  0.5439  1.0000  -1.7921   0.0000   0.0000   0.0000   0.3524
   6.100   1.3526   0.01274   0.00683  -0.1508  0.5394  1.0000  -1.8115   0.0000   0.0000   0.0000   0.3513
   6.200   1.3622   0.01285   0.00691  -0.1506  0.5353  1.0000  -1.8341   0.0000   0.0000   0.0000   0.3502
   6.300   1.3713   0.01295   0.00704  -0.1503  0.5303  1.0000  -1.8580   0.0000   0.0000   0.0000   0.3491
   6.400   1.3807   0.01307   0.00712  -0.1500  0.5261  1.0000  -1.8824   0.0000   0.0000   0.0000   0.3480
   6.500   1.3896   0.01317   0.00724  -0.1497  0.5210  1.0000  -1.9062   0.0000   0.0000   0.0000   0.3469
   6.600   1.3986   0.01330   0.00734  -0.1493  0.5164  1.0000  -1.9303   0.0000   0.0000   0.0000   0.3458
   6.700   1.4074   0.01342   0.00746  -0.1490  0.5115  1.0000  -1.9543   0.0000   0.0000   0.0000   0.3447
   6.800   1.4161   0.01355   0.00758  -0.1486  0.5064  1.0000  -1.9780   0.0000   0.0000   0.0000   0.3436
   6.900   1.4247   0.01368   0.00770  -0.1482  0.5015  1.0000  -2.0019   0.0000   0.0000   0.0000   0.3426
   7.000   1.4330   0.01381   0.00783  -0.1477  0.4961  1.0000  -2.0254   0.0000   0.0000   0.0000   0.3415
   7.100   1.4413   0.01396   0.00797  -0.1473  0.4912  1.0000  -2.0490   0.0000   0.0000   0.0000   0.3404
   7.200   1.4494   0.01410   0.00811  -0.1468  0.4857  1.0000  -2.0723   0.0000   0.0000   0.0000   0.3394
   7.300   1.4575   0.01426   0.00824  -0.1463  0.4809  1.0000  -2.0959   0.0000   0.0000   0.0000   0.3383
   7.400   1.4653   0.01440   0.00840  -0.1458  0.4753  1.0000  -2.1190   0.0000   0.0000   0.0000   0.3373
   7.500   1.4731   0.01458   0.00854  -0.1453  0.4706  1.0000  -2.1468   0.0000   0.0000   0.0000   0.3362
   7.600   1.4807   0.01472   0.00870  -0.1447  0.4650  1.0000  -2.1764   0.0000   0.0000   0.0000   0.3352
   7.700   1.4880   0.01490   0.00885  -0.1441  0.4601  1.0000  -2.2059   0.0000   0.0000   0.0000   0.3342
   7.800   1.4952   0.01506   0.00903  -0.1435  0.4545  1.0000  -2.2351   0.0000   0.0000   0.0000   0.3331
   7.900   1.5020   0.01526   0.00920  -0.1429  0.4493  1.0000  -2.2639   0.0000   0.0000   0.0000   0.3321
   8.000   1.5087   0.01543   0.00938  -0.1422  0.4436  1.0000  -2.2925   0.0000   0.0000   0.0000   0.3310
   8.100   1.5145   0.01564   0.00956  -0.1413  0.4384  1.0000  -2.3199   0.0000   0.0000   0.0000   0.3299
   8.200   1.5203   0.01581   0.00975  -0.1405  0.4327  1.0000  -2.3472   0.0000   0.0000   0.0000   0.3289
   8.300   1.5258   0.01604   0.00994  -0.1396  0.4275  1.0000  -2.3742   0.0000   0.0000   0.0000   0.3278
   8.400   1.5316   0.01624   0.01016  -0.1387  0.4218  1.0000  -2.4017   0.0000   0.0000   0.0000   0.3267
   8.500   1.5368   0.01648   0.01037  -0.1378  0.4167  1.0000  -2.4284   0.0000   0.0000   0.0000   0.3257
   8.600   1.5424   0.01670   0.01060  -0.1370  0.4110  1.0000  -2.4557   0.0000   0.0000   0.0000   0.3246
   8.700   1.5473   0.01696   0.01084  -0.1361  0.4060  1.0000  -2.4821   0.0000   0.0000   0.0000   0.3236
   8.800   1.5528   0.01719   0.01108  -0.1353  0.4005  1.0000  -2.5092   0.0000   0.0000   0.0000   0.3226
   8.900   1.5574   0.01748   0.01135  -0.1343  0.3954  1.0000  -2.5352   0.0000   0.0000   0.0000   0.3215
   9.000   1.5626   0.01773   0.01161  -0.1335  0.3899  1.0000  -2.5621   0.0000   0.0000   0.0000   0.3206
   9.100   1.5669   0.01804   0.01190  -0.1325  0.3849  1.0000  -2.5888   0.0000   0.0000   0.0000   0.3195
   9.200   1.5719   0.01831   0.01218  -0.1317  0.3796  1.0000  -2.6231   0.0000   0.0000   0.0000   0.3186
   9.300   1.5762   0.01864   0.01249  -0.1308  0.3748  1.0000  -2.6594   0.0000   0.0000   0.0000   0.3176
   9.400   1.5809   0.01894   0.01280  -0.1300  0.3697  1.0000  -2.6975   0.0000   0.0000   0.0000   0.3166
   9.500   1.5850   0.01929   0.01313  -0.1290  0.3646  1.0000  -2.7346   0.0000   0.0000   0.0000   0.3157
   9.600   1.5894   0.01962   0.01347  -0.1282  0.3593  1.0000  -2.7743   0.0000   0.0000   0.0000   0.3147
   9.700   1.5931   0.02000   0.01384  -0.1273  0.3540  1.0000  -2.8124   0.0000   0.0000   0.0000   0.3138
   9.800   1.5972   0.02036   0.01420  -0.1264  0.3485  1.0000  -2.8517   0.0000   0.0000   0.0000   0.3129
   9.900   1.6004   0.02078   0.01461  -0.1255  0.3432  1.0000  -2.8950   0.0000   0.0000   0.0000   0.3119
  10.000   1.6044   0.02117   0.01500  -0.1247  0.3375  1.0000  -2.9455   0.0000   0.0000   0.0000   0.3111
  10.100   1.6073   0.02162   0.01543  -0.1237  0.3323  1.0000  -2.9927   0.0000   0.0000   0.0000   0.3101
  10.200   1.6113   0.02203   0.01585  -0.1230  0.3267  1.0000  -3.0437   0.0000   0.0000   0.0000   0.3093
  10.300   1.6139   0.02251   0.01631  -0.1220  0.3218  1.0000  -3.0907   0.0000   0.0000   0.0000   0.3084
  10.400   1.6180   0.02293   0.01675  -0.1213  0.3164  1.0000  -3.1425   0.0000   0.0000   0.0000   0.3076
  10.500   1.6206   0.02344   0.01723  -0.1204  0.3117  1.0000  -3.1896   0.0000   0.0000   0.0000   0.3067
  10.600   1.6245   0.02388   0.01769  -0.1197  0.3065  1.0000  -3.2414   0.0000   0.0000   0.0000   0.3059
  10.700   1.6270   0.02442   0.01821  -0.1188  0.3019  1.0000  -3.2885   0.0000   0.0000   0.0000   0.3050
  10.800   1.6307   0.02488   0.01868  -0.1181  0.2967  1.0000  -3.3403   0.0000   0.0000   0.0000   0.3042
  10.900   1.6332   0.02543   0.01922  -0.1172  0.2921  1.0000  -3.3877   0.0000   0.0000   0.0000   0.3034
  11.000   1.6368   0.02592   0.01973  -0.1165  0.2870  1.0000  -3.4394   0.0000   0.0000   0.0000   0.3026
  11.100   1.6391   0.02649   0.02029  -0.1157  0.2824  1.0000  -3.4869   0.0000   0.0000   0.0000   0.3018
  11.200   1.6424   0.02701   0.02082  -0.1150  0.2775  1.0000  -3.5380   0.0000   0.0000   0.0000   0.3011
  11.300   1.6447   0.02760   0.02141  -0.1142  0.2729  1.0000  -3.5855   0.0000   0.0000   0.0000   0.3003
  11.400   1.6476   0.02816   0.02197  -0.1135  0.2683  1.0000  -3.6358   0.0000   0.0000   0.0000   0.2995
  11.500   1.6497   0.02878   0.02258  -0.1127  0.2638  1.0000  -3.6833   0.0000   0.0000   0.0000   0.2988
  11.600   1.6522   0.02938   0.02319  -0.1120  0.2592  1.0000  -3.7320   0.0000   0.0000   0.0000   0.2980
  11.700   1.6541   0.03002   0.02383  -0.1112  0.2545  1.0000  -3.7792   0.0000   0.0000   0.0000   0.2973
  11.800   1.6561   0.03067   0.02448  -0.1105  0.2498  1.0000  -3.8267   0.0000   0.0000   0.0000   0.2966
  11.900   1.6576   0.03135   0.02515  -0.1097  0.2449  1.0000  -3.8727   0.0000   0.0000   0.0000   0.2958
  12.000   1.6594   0.03203   0.02583  -0.1090  0.2400  1.0000  -3.9196   0.0000   0.0000   0.0000   0.2951
  12.100   1.6605   0.03276   0.02655  -0.1082  0.2352  1.0000  -3.9644   0.0000   0.0000   0.0000   0.2944
  12.200   1.6623   0.03345   0.02725  -0.1075  0.2301  1.0000  -4.0118   0.0000   0.0000   0.0000   0.2937
  12.300   1.6630   0.03423   0.02802  -0.1067  0.2254  1.0000  -4.0552   0.0000   0.0000   0.0000   0.2930
  12.400   1.6648   0.03493   0.02873  -0.1061  0.2203  1.0000  -4.1032   0.0000   0.0000   0.0000   0.2923
  12.500   1.6651   0.03576   0.02955  -0.1053  0.2159  1.0000  -4.1450   0.0000   0.0000   0.0000   0.2917
  12.600   1.6669   0.03647   0.03028  -0.1047  0.2109  1.0000  -4.1932   0.0000   0.0000   0.0000   0.2910
  12.800   1.6685   0.03808   0.03189  -0.1033  0.2018  1.0000  -4.2818   0.0000   0.0000   0.0000   0.2897
  12.900   1.6683   0.03899   0.03278  -0.1026  0.1977  1.0000  -4.3221   0.0000   0.0000   0.0000   0.2891
  13.000   1.6699   0.03976   0.03357  -0.1020  0.1929  1.0000  -4.3696   0.0000   0.0000   0.0000   0.2884
  13.100   1.6696   0.04070   0.03449  -0.1013  0.1889  1.0000  -4.4099   0.0000   0.0000   0.0000   0.2878
  13.200   1.6709   0.04152   0.03532  -0.1007  0.1841  1.0000  -4.4566   0.0000   0.0000   0.0000   0.2872
  13.300   1.6707   0.04248   0.03627  -0.1001  0.1801  1.0000  -4.4971   0.0000   0.0000   0.0000   0.2866
  13.400   1.6718   0.04333   0.03714  -0.0996  0.1754  1.0000  -4.5430   0.0000   0.0000   0.0000   0.2860
  13.500   1.6717   0.04430   0.03811  -0.0990  0.1714  1.0000  -4.5843   0.0000   0.0000   0.0000   0.2855
  13.600   1.6723   0.04522   0.03904  -0.0984  0.1668  1.0000  -4.6284   0.0000   0.0000   0.0000   0.2849
  13.700   1.6722   0.04621   0.04003  -0.0979  0.1628  1.0000  -4.6696   0.0000   0.0000   0.0000   0.2844
  13.800   1.6721   0.04719   0.04102  -0.0973  0.1586  1.0000  -4.7113   0.0000   0.0000   0.0000   0.2838
  13.900   1.6719   0.04821   0.04204  -0.0968  0.1547  1.0000  -4.7521   0.0000   0.0000   0.0000   0.2833
  14.000   1.6716   0.04925   0.04308  -0.0963  0.1508  1.0000  -4.7927   0.0000   0.0000   0.0000   0.2828
  14.100   1.6712   0.05032   0.04414  -0.0958  0.1471  1.0000  -4.8326   0.0000   0.0000   0.0000   0.2823
  14.200   1.6708   0.05139   0.04522  -0.0953  0.1434  1.0000  -4.8729   0.0000   0.0000   0.0000   0.2818
  14.300   1.6700   0.05251   0.04634  -0.0948  0.1400  1.0000  -4.9114   0.0000   0.0000   0.0000   0.2813
  14.400   1.6700   0.05357   0.04741  -0.0944  0.1362  1.0000  -4.9532   0.0000   0.0000   0.0000   0.2808
  14.500   1.6689   0.05474   0.04859  -0.0939  0.1330  1.0000  -4.9902   0.0000   0.0000   0.0000   0.2803
  14.600   1.6690   0.05581   0.04967  -0.0936  0.1294  1.0000  -5.0325   0.0000   0.0000   0.0000   0.2799
  14.800   1.6676   0.05813   0.05201  -0.0928  0.1229  1.0000  -5.1101   0.0000   0.0000   0.0000   0.2790
  14.900   1.6659   0.05940   0.05328  -0.0924  0.1201  1.0000  -5.1445   0.0000   0.0000   0.0000   0.2786
  15.000   1.6657   0.06053   0.05443  -0.0921  0.1169  1.0000  -5.1853   0.0000   0.0000   0.0000   0.2782
  15.100   1.6644   0.06179   0.05570  -0.0917  0.1140  1.0000  -5.2214   0.0000   0.0000   0.0000   0.2778
  15.200   1.6631   0.06306   0.05698  -0.0914  0.1113  1.0000  -5.2572   0.0000   0.0000   0.0000   0.2774
  15.300   1.6624   0.06427   0.05821  -0.0911  0.1084  1.0000  -5.2961   0.0000   0.0000   0.0000   0.2770
  15.400   1.6600   0.06568   0.05962  -0.0908  0.1061  1.0000  -5.3269   0.0000   0.0000   0.0000   0.2767
  15.500   1.6598   0.06687   0.06083  -0.0906  0.1032  1.0000  -5.3676   0.0000   0.0000   0.0000   0.2763
  15.600   1.6582   0.06822   0.06219  -0.0903  0.1007  1.0000  -5.4020   0.0000   0.0000   0.0000   0.2760
  15.700   1.6562   0.06963   0.06361  -0.0901  0.0984  1.0000  -5.4342   0.0000   0.0000   0.0000   0.2757
  15.800   1.6557   0.07086   0.06487  -0.0899  0.0957  1.0000  -5.4737   0.0000   0.0000   0.0000   0.2753
  15.900   1.6533   0.07234   0.06636  -0.0897  0.0936  1.0000  -5.5040   0.0000   0.0000   0.0000   0.2750
  16.000   1.6522   0.07366   0.06771  -0.0895  0.0912  1.0000  -5.5403   0.0000   0.0000   0.0000   0.2747
  16.100   1.6509   0.07503   0.06910  -0.0894  0.0888  1.0000  -5.5755   0.0000   0.0000   0.0000   0.2745
  16.200   1.6479   0.07659   0.07066  -0.0893  0.0870  1.0000  -5.6030   0.0000   0.0000   0.0000   0.2742
  16.300   1.6472   0.07790   0.07200  -0.0891  0.0847  1.0000  -5.6404   0.0000   0.0000   0.0000   0.2740
  16.400   1.6454   0.07933   0.07345  -0.0890  0.0825  1.0000  -5.6734   0.0000   0.0000   0.0000   0.2737
  16.500   1.6421   0.08097   0.07510  -0.0890  0.0809  1.0000  -5.6986   0.0000   0.0000   0.0000   0.2735
  16.600   1.6413   0.08231   0.07648  -0.0889  0.0787  1.0000  -5.7355   0.0000   0.0000   0.0000   0.2733
  16.700   1.6392   0.08382   0.07801  -0.0889  0.0768  1.0000  -5.7664   0.0000   0.0000   0.0000   0.2731
  16.800   1.6359   0.08550   0.07970  -0.0889  0.0753  1.0000  -5.7911   0.0000   0.0000   0.0000   0.2730
  16.900   1.6344   0.08696   0.08119  -0.0889  0.0735  1.0000  -5.8239   0.0000   0.0000   0.0000   0.2728
  17.000   1.6327   0.08845   0.08272  -0.0889  0.0717  1.0000  -5.8556   0.0000   0.0000   0.0000   0.2726
  17.100   1.6296   0.09014   0.08442  -0.0889  0.0702  1.0000  -5.8805   0.0000   0.0000   0.0000   0.2725
  17.200   1.6266   0.09181   0.08611  -0.0890  0.0688  1.0000  -5.9058   0.0000   0.0000   0.0000   0.2724
  17.300   1.6253   0.09327   0.08761  -0.0891  0.0670  1.0000  -5.9390   0.0000   0.0000   0.0000   0.2722
  17.400   1.6227   0.09491   0.08928  -0.0892  0.0655  1.0000  -5.9654   0.0000   0.0000   0.0000   0.2721
  17.500   1.6188   0.09673   0.09111  -0.0894  0.0643  1.0000  -5.9856   0.0000   0.0000   0.0000   0.2721
  17.600   1.6169   0.09829   0.09271  -0.0895  0.0628  1.0000  -6.0145   0.0000   0.0000   0.0000   0.2720
  17.700   1.6149   0.09985   0.09431  -0.0896  0.0612  1.0000  -6.0435   0.0000   0.0000   0.0000   0.2719
  17.800   1.6118   0.10158   0.09606  -0.0898  0.0600  1.0000  -6.0665   0.0000   0.0000   0.0000   0.2719
  17.900   1.6077   0.10347   0.09796  -0.0901  0.0589  1.0000  -6.0837   0.0000   0.0000   0.0000   0.2720
  18.000   1.6060   0.10502   0.09955  -0.0903  0.0574  1.0000  -6.1130   0.0000   0.0000   0.0000   0.2719
  18.100   1.6038   0.10666   0.10123  -0.0905  0.0561  1.0000  -6.1393   0.0000   0.0000   0.0000   0.2719
  18.200   1.6005   0.10846   0.10305  -0.0908  0.0549  1.0000  -6.1600   0.0000   0.0000   0.0000   0.2719
  18.300   1.5963   0.11040   0.10500  -0.0912  0.0540  1.0000  -6.1755   0.0000   0.0000   0.0000   0.2721
  18.400   1.5943   0.11203   0.10667  -0.0915  0.0527  1.0000  -6.2018   0.0000   0.0000   0.0000   0.2721
  18.500   1.5923   0.11367   0.10836  -0.0918  0.0513  1.0000  -6.2275   0.0000   0.0000   0.0000   0.2721
  18.600   1.5892   0.11549   0.11020  -0.0922  0.0503  1.0000  -6.2475   0.0000   0.0000   0.0000   0.2722
  18.700   1.5853   0.11742   0.11214  -0.0927  0.0494  1.0000  -6.2630   0.0000   0.0000   0.0000   0.2724
  18.800   1.5825   0.11920   0.11395  -0.0931  0.0483  1.0000  -6.2846   0.0000   0.0000   0.0000   0.2725
  18.900   1.5807   0.12084   0.11564  -0.0935  0.0471  1.0000  -6.3173   0.0000   0.0000   0.0000   0.2726
  19.000   1.5779   0.12263   0.11746  -0.0940  0.0461  1.0000  -6.3444   0.0000   0.0000   0.0000   0.2727
  19.100   1.5745   0.12452   0.11936  -0.0945  0.0453  1.0000  -6.3675   0.0000   0.0000   0.0000   0.2729
  19.200   1.5703   0.12652   0.12136  -0.0951  0.0446  1.0000  -6.3848   0.0000   0.0000   0.0000   0.2732
  19.300   1.5685   0.12817   0.12307  -0.0956  0.0435  1.0000  -6.4158   0.0000   0.0000   0.0000   0.2733
  19.400   1.5663   0.12989   0.12483  -0.0961  0.0425  1.0000  -6.4444   0.0000   0.0000   0.0000   0.2735
  19.500   1.5637   0.13166   0.12663  -0.0966  0.0417  1.0000  -6.4710   0.0000   0.0000   0.0000   0.2737
  19.600   1.5605   0.13355   0.12853  -0.0973  0.0410  1.0000  -6.4929   0.0000   0.0000   0.0000   0.2740
  19.700   1.5568   0.13549   0.13047  -0.0980  0.0403  1.0000  -6.5117   0.0000   0.0000   0.0000   0.2743
  19.800   1.5547   0.13722   0.13223  -0.0985  0.0395  1.0000  -6.5390   0.0000   0.0000   0.0000   0.2745
  19.900   1.5530   0.13891   0.13397  -0.0991  0.0386  1.0000  -6.5684   0.0000   0.0000   0.0000   0.2747
  20.000   1.5509   0.14064   0.13574  -0.0998  0.0378  1.0000  -6.5960   0.0000   0.0000   0.0000   0.2749


