xflr5 v6.57

 Calculated polar for: rev_root_140

 1 1 Reynolds number fixed          Mach number fixed         

 xtrf =   1.000 (top)        1.000 (bottom)
 Mach =   0.000     Re =     0.620 e 6     Ncrit =   9.000

  alpha     CL        CD       CDp       Cm    Top Xtr Bot Xtr   Cpmin    Chinge    XCp    
 ------- -------- --------- --------- -------- ------- ------- -------- --------- ---------
 -10.000  -0.3948   0.02463   0.02016  -0.1464  0.8311  0.0209  -6.2054   0.0000   0.0000   0.0000  -0.1439
  -9.900  -0.3855   0.02418   0.01966  -0.1467  0.8292  0.0211  -6.1168   0.0000   0.0000   0.0000  -0.1539
  -9.800  -0.3758   0.02380   0.01923  -0.1470  0.8276  0.0213  -6.0239   0.0000   0.0000   0.0000  -0.1646
  -9.700  -0.3662   0.02340   0.01877  -0.1473  0.8261  0.0215  -5.9335   0.0000   0.0000   0.0000  -0.1760
  -9.600  -0.3565   0.02296   0.01827  -0.1476  0.8243  0.0217  -5.8468   0.0000   0.0000   0.0000  -0.1880
  -9.500  -0.3469   0.02248   0.01772  -0.1479  0.8224  0.0220  -5.7636   0.0000   0.0000   0.0000  -0.2007
  -9.400  -0.3372   0.02198   0.01713  -0.1482  0.8207  0.0222  -5.6834   0.0000   0.0000   0.0000  -0.2141
  -9.300  -0.3275   0.02146   0.01652  -0.1485  0.8191  0.0225  -5.6052   0.0000   0.0000   0.0000  -0.2285
  -9.200  -0.3176   0.02096   0.01590  -0.1488  0.8177  0.0227  -5.5277   0.0000   0.0000   0.0000  -0.2439
  -9.100  -0.3076   0.02047   0.01531  -0.1490  0.8163  0.0229  -5.4501   0.0000   0.0000   0.0000  -0.2604
  -9.000  -0.2974   0.02002   0.01477  -0.1493  0.8145  0.0230  -5.3707   0.0000   0.0000   0.0000  -0.2782
  -8.900  -0.2871   0.01963   0.01429  -0.1495  0.8129  0.0232  -5.2883   0.0000   0.0000   0.0000  -0.2975
  -8.800  -0.2765   0.01930   0.01386  -0.1497  0.8113  0.0233  -5.2029   0.0000   0.0000   0.0000  -0.3187
  -8.700  -0.2665   0.01873   0.01321  -0.1499  0.8098  0.0235  -5.1285   0.0000   0.0000   0.0000  -0.3404
  -8.600  -0.2571   0.01798   0.01239  -0.1501  0.8085  0.0238  -5.0592   0.0000   0.0000   0.0000  -0.3626
  -8.500  -0.2467   0.01755   0.01192  -0.1503  0.8073  0.0240  -4.9732   0.0000   0.0000   0.0000  -0.3885
  -8.400  -0.2362   0.01723   0.01159  -0.1504  0.8056  0.0242  -4.8824   0.0000   0.0000   0.0000  -0.4170
  -8.300  -0.2255   0.01696   0.01131  -0.1505  0.8040  0.0244  -4.7905   0.0000   0.0000   0.0000  -0.4487
  -8.200  -0.2147   0.01671   0.01104  -0.1507  0.8025  0.0246  -4.7052   0.0000   0.0000   0.0000  -0.4839
  -8.100  -0.2038   0.01648   0.01077  -0.1508  0.8011  0.0249  -4.6206   0.0000   0.0000   0.0000  -0.5232
  -8.000  -0.1929   0.01624   0.01049  -0.1509  0.7998  0.0251  -4.5372   0.0000   0.0000   0.0000  -0.5672
  -7.900  -0.1819   0.01601   0.01022  -0.1511  0.7986  0.0254  -4.4548   0.0000   0.0000   0.0000  -0.6167
  -7.800  -0.1709   0.01578   0.00994  -0.1512  0.7973  0.0256  -4.3736   0.0000   0.0000   0.0000  -0.6727
  -7.700  -0.1599   0.01555   0.00968  -0.1513  0.7958  0.0259  -4.2930   0.0000   0.0000   0.0000  -0.7359
  -7.600  -0.1489   0.01533   0.00943  -0.1514  0.7943  0.0262  -4.2121   0.0000   0.0000   0.0000  -0.8091
  -7.500  -0.1377   0.01513   0.00919  -0.1515  0.7929  0.0265  -4.1314   0.0000   0.0000   0.0000  -0.8947
  -7.400  -0.1265   0.01495   0.00896  -0.1516  0.7915  0.0268  -4.0507   0.0000   0.0000   0.0000  -0.9961
  -7.300  -0.1152   0.01480   0.00859  -0.1517  0.7902  0.0271  -3.9744   0.0000   0.0000   0.0000  -1.1182
  -7.200  -0.1038   0.01467   0.00856  -0.1518  0.7890  0.0273  -3.9008   0.0000   0.0000   0.0000  -1.2682
  -7.100  -0.0934   0.01419   0.00806  -0.1519  0.7877  0.0277  -3.8413   0.0000   0.0000   0.0000  -1.4394
  -7.000  -0.0825   0.01391   0.00778  -0.1521  0.7860  0.0280  -3.7711   0.0000   0.0000   0.0000  -1.6612
  -6.900  -0.0715   0.01370   0.00757  -0.1522  0.7844  0.0283  -3.6980   0.0000   0.0000   0.0000  -1.9570
  -6.800  -0.0603   0.01352   0.00738  -0.1523  0.7829  0.0286  -3.6243   0.0000   0.0000   0.0000  -2.3665
  -6.700  -0.0490   0.01336   0.00720  -0.1524  0.7815  0.0290  -3.5510   0.0000   0.0000   0.0000  -2.9681
  -6.600  -0.0377   0.01320   0.00702  -0.1525  0.7803  0.0293  -3.4785   0.0000   0.0000   0.0000  -3.9359
  -6.500  -0.0263   0.01305   0.00683  -0.1526  0.7792  0.0297  -3.4068   0.0000   0.0000   0.0000  -5.7495
  -6.400  -0.0149   0.01290   0.00666  -0.1527  0.7779  0.0301  -3.3362   0.0000   0.0000   0.0000  -10.3084
  -6.300  -0.0037   0.01275   0.00649  -0.1528  0.7764  0.0304  -3.2666   0.0000   0.0000   0.0000  -42.7330
  -6.200   0.0077   0.01260   0.00632  -0.1529  0.7749  0.0308  -3.1973   0.0000   0.0000   0.0000  20.8083
  -6.100   0.0191   0.01248   0.00617  -0.1529  0.7734  0.0312  -3.1273   0.0000   0.0000   0.0000   8.5105
  -6.000   0.0305   0.01234   0.00600  -0.1530  0.7721  0.0316  -3.0584   0.0000   0.0000   0.0000   5.4199
  -5.900   0.0417   0.01207   0.00573  -0.1532  0.7708  0.0322  -2.9920   0.0000   0.0000   0.0000   4.0339
  -5.800   0.0532   0.01193   0.00557  -0.1534  0.7697  0.0328  -2.9207   0.0000   0.0000   0.0000   3.2197
  -5.700   0.0647   0.01181   0.00544  -0.1535  0.7686  0.0334  -2.8497   0.0000   0.0000   0.0000   2.6910
  -5.600   0.0760   0.01169   0.00532  -0.1536  0.7671  0.0340  -2.7809   0.0000   0.0000   0.0000   2.3265
  -5.500   0.0875   0.01157   0.00519  -0.1537  0.7656  0.0346  -2.7134   0.0000   0.0000   0.0000   2.0552
  -5.400   0.0990   0.01146   0.00505  -0.1538  0.7642  0.0352  -2.6466   0.0000   0.0000   0.0000   1.8456
  -5.300   0.1105   0.01136   0.00493  -0.1539  0.7629  0.0358  -2.5858   0.0000   0.0000   0.0000   1.6787
  -5.200   0.1220   0.01116   0.00472  -0.1540  0.7616  0.0367  -2.5292   0.0000   0.0000   0.0000   1.5449
  -5.100   0.1336   0.01102   0.00457  -0.1542  0.7604  0.0376  -2.4688   0.0000   0.0000   0.0000   1.4332
  -5.000   0.1452   0.01092   0.00445  -0.1543  0.7593  0.0386  -2.4083   0.0000   0.0000   0.0000   1.3386
  -4.900   0.1568   0.01083   0.00435  -0.1544  0.7580  0.0398  -2.3497   0.0000   0.0000   0.0000   1.2585
  -4.800   0.1683   0.01072   0.00423  -0.1545  0.7564  0.0411  -2.2930   0.0000   0.0000   0.0000   1.1897
  -4.700   0.1797   0.01056   0.00409  -0.1546  0.7550  0.0428  -2.2349   0.0000   0.0000   0.0000   1.1300
  -4.600   0.1913   0.01047   0.00399  -0.1547  0.7535  0.0448  -2.1763   0.0000   0.0000   0.0000   1.0769
  -4.500   0.2029   0.01035   0.00388  -0.1548  0.7521  0.0472  -2.1189   0.0000   0.0000   0.0000   1.0298
  -4.400   0.2145   0.01027   0.00379  -0.1550  0.7508  0.0501  -2.0602   0.0000   0.0000   0.0000   0.9876
  -4.300   0.2262   0.01017   0.00369  -0.1551  0.7496  0.0533  -2.0022   0.0000   0.0000   0.0000   0.9497
  -4.100   0.2493   0.01000   0.00354  -0.1553  0.7466  0.0607  -1.8936   0.0000   0.0000   0.0000   0.8851
  -4.000   0.2608   0.00991   0.00346  -0.1554  0.7450  0.0646  -1.8418   0.0000   0.0000   0.0000   0.8571
  -3.900   0.2724   0.00984   0.00339  -0.1555  0.7435  0.0689  -1.7894   0.0000   0.0000   0.0000   0.8313
  -3.800   0.2840   0.00975   0.00331  -0.1556  0.7420  0.0735  -1.7369   0.0000   0.0000   0.0000   0.8077
  -3.700   0.2956   0.00967   0.00324  -0.1558  0.7407  0.0786  -1.6843   0.0000   0.0000   0.0000   0.7859
  -3.600   0.3073   0.00960   0.00318  -0.1559  0.7395  0.0844  -1.6318   0.0000   0.0000   0.0000   0.7656
  -3.500   0.3190   0.00954   0.00312  -0.1560  0.7383  0.0908  -1.5795   0.0000   0.0000   0.0000   0.7469
  -3.400   0.3304   0.00946   0.00308  -0.1561  0.7366  0.0976  -1.5280   0.0000   0.0000   0.0000   0.7297
  -3.300   0.3420   0.00939   0.00303  -0.1562  0.7351  0.1049  -1.4766   0.0000   0.0000   0.0000   0.7135
  -3.200   0.3536   0.00932   0.00299  -0.1563  0.7336  0.1129  -1.4254   0.0000   0.0000   0.0000   0.6984
  -3.100   0.3652   0.00925   0.00295  -0.1565  0.7321  0.1219  -1.3744   0.0000   0.0000   0.0000   0.6843
  -3.000   0.3768   0.00919   0.00291  -0.1566  0.7308  0.1316  -1.3236   0.0000   0.0000   0.0000   0.6709
  -2.900   0.3885   0.00914   0.00287  -0.1567  0.7296  0.1415  -1.2732   0.0000   0.0000   0.0000   0.6584
  -2.800   0.4003   0.00909   0.00283  -0.1569  0.7284  0.1516  -1.2231   0.0000   0.0000   0.0000   0.6465
  -2.700   0.4117   0.00902   0.00281  -0.1570  0.7267  0.1620  -1.1742   0.0000   0.0000   0.0000   0.6355
  -2.600   0.4232   0.00896   0.00279  -0.1571  0.7250  0.1731  -1.1256   0.0000   0.0000   0.0000   0.6251
  -2.500   0.4347   0.00890   0.00276  -0.1572  0.7233  0.1846  -1.0773   0.0000   0.0000   0.0000   0.6151
  -2.400   0.4463   0.00884   0.00273  -0.1573  0.7217  0.1966  -1.0322   0.0000   0.0000   0.0000   0.6057
  -2.300   0.4579   0.00879   0.00270  -0.1574  0.7202  0.2091  -0.9885   0.0000   0.0000   0.0000   0.5967
  -2.200   0.4696   0.00875   0.00268  -0.1576  0.7189  0.2221  -0.9451   0.0000   0.0000   0.0000   0.5882
  -2.000   0.4926   0.00865   0.00265  -0.1577  0.7153  0.2469  -0.8605   0.0000   0.0000   0.0000   0.5724
  -1.900   0.5041   0.00860   0.00263  -0.1578  0.7136  0.2585  -0.8302   0.0000   0.0000   0.0000   0.5650
  -1.800   0.5157   0.00855   0.00261  -0.1579  0.7119  0.2709  -0.8382   0.0000   0.0000   0.0000   0.5579
  -1.700   0.5273   0.00851   0.00260  -0.1581  0.7104  0.2844  -0.8462   0.0000   0.0000   0.0000   0.5512
  -1.600   0.5390   0.00847   0.00258  -0.1582  0.7091  0.2984  -0.8542   0.0000   0.0000   0.0000   0.5447
  -1.500   0.5507   0.00845   0.00257  -0.1583  0.7077  0.3125  -0.8623   0.0000   0.0000   0.0000   0.5385
  -1.400   0.5621   0.00840   0.00257  -0.1584  0.7059  0.3266  -0.8701   0.0000   0.0000   0.0000   0.5326
  -1.300   0.5736   0.00835   0.00257  -0.1585  0.7041  0.3426  -0.8780   0.0000   0.0000   0.0000   0.5269
  -1.200   0.5851   0.00830   0.00257  -0.1586  0.7023  0.3596  -0.8860   0.0000   0.0000   0.0000   0.5214
  -1.100   0.5967   0.00826   0.00256  -0.1587  0.7007  0.3765  -0.8940   0.0000   0.0000   0.0000   0.5162
  -1.000   0.6083   0.00822   0.00256  -0.1588  0.6992  0.3929  -0.9021   0.0000   0.0000   0.0000   0.5111
  -0.900   0.6201   0.00820   0.00255  -0.1590  0.6978  0.4096  -0.9110   0.0000   0.0000   0.0000   0.5062
  -0.800   0.6315   0.00816   0.00256  -0.1591  0.6959  0.4260  -0.9201   0.0000   0.0000   0.0000   0.5015
  -0.700   0.6429   0.00811   0.00257  -0.1591  0.6940  0.4428  -0.9291   0.0000   0.0000   0.0000   0.4970
  -0.600   0.6544   0.00807   0.00257  -0.1592  0.6920  0.4610  -0.9383   0.0000   0.0000   0.0000   0.4926
  -0.500   0.6659   0.00803   0.00257  -0.1593  0.6902  0.4802  -0.9474   0.0000   0.0000   0.0000   0.4884
  -0.400   0.6774   0.00799   0.00257  -0.1594  0.6885  0.4989  -0.9567   0.0000   0.0000   0.0000   0.4842
  -0.300   0.6890   0.00797   0.00257  -0.1595  0.6868  0.5187  -0.9662   0.0000   0.0000   0.0000   0.4803
  -0.200   0.7002   0.00791   0.00260  -0.1596  0.6844  0.5405  -0.9755   0.0000   0.0000   0.0000   0.4765
  -0.100   0.7116   0.00786   0.00261  -0.1596  0.6822  0.5633  -0.9848   0.0000   0.0000   0.0000   0.4727
   0.000   0.7229   0.00782   0.00262  -0.1597  0.6801  0.5862  -0.9943   0.0000   0.0000   0.0000   0.4691
   0.100   0.7343   0.00778   0.00263  -0.1597  0.6783  0.6086  -1.0037   0.0000   0.0000   0.0000   0.4656
   0.200   0.7457   0.00777   0.00264  -0.1598  0.6767  0.6293  -1.0132   0.0000   0.0000   0.0000   0.4622
   0.300   0.7569   0.00773   0.00268  -0.1598  0.6745  0.6498  -1.0225   0.0000   0.0000   0.0000   0.4589
   0.400   0.7681   0.00770   0.00271  -0.1598  0.6724  0.6709  -1.0318   0.0000   0.0000   0.0000   0.4557
   0.500   0.7793   0.00768   0.00273  -0.1597  0.6703  0.6909  -1.0411   0.0000   0.0000   0.0000   0.4525
   0.600   0.7904   0.00766   0.00275  -0.1597  0.6684  0.7093  -1.0505   0.0000   0.0000   0.0000   0.4494
   0.700   0.8015   0.00766   0.00277  -0.1597  0.6667  0.7267  -1.0599   0.0000   0.0000   0.0000   0.4464
   0.800   0.8126   0.00766   0.00280  -0.1596  0.6647  0.7422  -1.0692   0.0000   0.0000   0.0000   0.4435
   0.900   0.8235   0.00765   0.00283  -0.1596  0.6623  0.7559  -1.0798   0.0000   0.0000   0.0000   0.4407
   1.000   0.8345   0.00764   0.00285  -0.1595  0.6599  0.7680  -1.0905   0.0000   0.0000   0.0000   0.4379
   1.100   0.8454   0.00764   0.00286  -0.1594  0.6577  0.7792  -1.1012   0.0000   0.0000   0.0000   0.4352
   1.200   0.8564   0.00766   0.00286  -0.1593  0.6556  0.7899  -1.1119   0.0000   0.0000   0.0000   0.4326
   1.300   0.8672   0.00765   0.00289  -0.1592  0.6528  0.8006  -1.1225   0.0000   0.0000   0.0000   0.4300
   1.400   0.8779   0.00764   0.00291  -0.1591  0.6500  0.8112  -1.1330   0.0000   0.0000   0.0000   0.4275
   1.500   0.8885   0.00765   0.00292  -0.1589  0.6474  0.8217  -1.1439   0.0000   0.0000   0.0000   0.4250
   1.600   0.8990   0.00766   0.00293  -0.1587  0.6451  0.8325  -1.1547   0.0000   0.0000   0.0000   0.4226
   1.700   0.9094   0.00765   0.00296  -0.1586  0.6423  0.8435  -1.1654   0.0000   0.0000   0.0000   0.4202
   1.800   0.9197   0.00765   0.00298  -0.1583  0.6394  0.8544  -1.1761   0.0000   0.0000   0.0000   0.4179
   1.900   0.9298   0.00765   0.00300  -0.1581  0.6369  0.8652  -1.1867   0.0000   0.0000   0.0000   0.4156
   2.000   0.9398   0.00766   0.00301  -0.1578  0.6347  0.8764  -1.1972   0.0000   0.0000   0.0000   0.4133
   2.100   0.9496   0.00766   0.00303  -0.1574  0.6321  0.8882  -1.2079   0.0000   0.0000   0.0000   0.4111
   2.200   0.9590   0.00764   0.00305  -0.1570  0.6293  0.9005  -1.2200   0.0000   0.0000   0.0000   0.4089
   2.300   0.9678   0.00763   0.00306  -0.1564  0.6267  0.9152  -1.2318   0.0000   0.0000   0.0000   0.4067
   2.500   0.9871   0.00755   0.00302  -0.1556  0.6215  0.9855  -1.2566   0.0000   0.0000   0.0000   0.4024
   2.600   0.9988   0.00758   0.00305  -0.1558  0.6183  1.0000  -1.2704   0.0000   0.0000   0.0000   0.4006
   2.700   1.0101   0.00762   0.00307  -0.1559  0.6152  1.0000  -1.2840   0.0000   0.0000   0.0000   0.3988
   2.800   1.0214   0.00768   0.00308  -0.1559  0.6123  1.0000  -1.2976   0.0000   0.0000   0.0000   0.3970
   2.900   1.0328   0.00771   0.00312  -0.1560  0.6086  1.0000  -1.3113   0.0000   0.0000   0.0000   0.3953
   3.000   1.0439   0.00775   0.00314  -0.1561  0.6050  1.0000  -1.3249   0.0000   0.0000   0.0000   0.3936
   3.200   1.0662   0.00785   0.00321  -0.1561  0.5981  1.0000  -1.3521   0.0000   0.0000   0.0000   0.3903
   3.300   1.0773   0.00790   0.00324  -0.1562  0.5945  1.0000  -1.3656   0.0000   0.0000   0.0000   0.3886
   3.400   1.0882   0.00796   0.00327  -0.1562  0.5913  1.0000  -1.3791   0.0000   0.0000   0.0000   0.3870
   3.500   1.0993   0.00800   0.00332  -0.1562  0.5878  1.0000  -1.3928   0.0000   0.0000   0.0000   0.3855
   3.600   1.1103   0.00806   0.00336  -0.1562  0.5843  1.0000  -1.4064   0.0000   0.0000   0.0000   0.3840
   3.700   1.1211   0.00812   0.00340  -0.1562  0.5811  1.0000  -1.4199   0.0000   0.0000   0.0000   0.3825
   3.800   1.1321   0.00818   0.00344  -0.1562  0.5776  1.0000  -1.4338   0.0000   0.0000   0.0000   0.3810
   3.900   1.1430   0.00823   0.00349  -0.1562  0.5739  1.0000  -1.4479   0.0000   0.0000   0.0000   0.3795
   4.000   1.1537   0.00830   0.00354  -0.1562  0.5704  1.0000  -1.4628   0.0000   0.0000   0.0000   0.3781
   4.100   1.1645   0.00836   0.00359  -0.1561  0.5668  1.0000  -1.4782   0.0000   0.0000   0.0000   0.3767
   4.200   1.1753   0.00842   0.00364  -0.1561  0.5629  1.0000  -1.4937   0.0000   0.0000   0.0000   0.3753
   4.300   1.1858   0.00850   0.00369  -0.1560  0.5593  1.0000  -1.5093   0.0000   0.0000   0.0000   0.3739
   4.400   1.1965   0.00856   0.00375  -0.1560  0.5554  1.0000  -1.5252   0.0000   0.0000   0.0000   0.3726
   4.500   1.2070   0.00863   0.00381  -0.1559  0.5512  1.0000  -1.5410   0.0000   0.0000   0.0000   0.3712
   4.600   1.2172   0.00872   0.00387  -0.1558  0.5472  1.0000  -1.5565   0.0000   0.0000   0.0000   0.3699
   4.700   1.2279   0.00878   0.00393  -0.1558  0.5426  1.0000  -1.5733   0.0000   0.0000   0.0000   0.3686
   4.800   1.2380   0.00887   0.00400  -0.1556  0.5382  1.0000  -1.5899   0.0000   0.0000   0.0000   0.3673
   4.900   1.2484   0.00895   0.00406  -0.1555  0.5338  1.0000  -1.6066   0.0000   0.0000   0.0000   0.3661
   5.000   1.2587   0.00903   0.00413  -0.1554  0.5292  1.0000  -1.6234   0.0000   0.0000   0.0000   0.3648
   5.100   1.2686   0.00913   0.00420  -0.1553  0.5251  1.0000  -1.6399   0.0000   0.0000   0.0000   0.3636
   5.200   1.2790   0.00920   0.00427  -0.1552  0.5205  1.0000  -1.6568   0.0000   0.0000   0.0000   0.3624
   5.300   1.2889   0.00930   0.00435  -0.1550  0.5162  1.0000  -1.6756   0.0000   0.0000   0.0000   0.3612
   5.400   1.2990   0.00939   0.00443  -0.1549  0.5119  1.0000  -1.6954   0.0000   0.0000   0.0000   0.3600
   5.500   1.3090   0.00948   0.00451  -0.1547  0.5073  1.0000  -1.7151   0.0000   0.0000   0.0000   0.3588
   5.600   1.3186   0.00959   0.00460  -0.1545  0.5029  1.0000  -1.7345   0.0000   0.0000   0.0000   0.3576
   5.700   1.3288   0.00968   0.00468  -0.1544  0.4980  1.0000  -1.7545   0.0000   0.0000   0.0000   0.3565
   5.800   1.3382   0.00980   0.00477  -0.1541  0.4933  1.0000  -1.7738   0.0000   0.0000   0.0000   0.3553
   5.900   1.3481   0.00989   0.00486  -0.1539  0.4883  1.0000  -1.7937   0.0000   0.0000   0.0000   0.3542
   6.000   1.3574   0.01001   0.00496  -0.1537  0.4832  1.0000  -1.8130   0.0000   0.0000   0.0000   0.3531
   6.100   1.3670   0.01012   0.00505  -0.1535  0.4781  1.0000  -1.8353   0.0000   0.0000   0.0000   0.3520
   6.200   1.3762   0.01024   0.00516  -0.1532  0.4727  1.0000  -1.8595   0.0000   0.0000   0.0000   0.3509
   6.300   1.3856   0.01036   0.00526  -0.1529  0.4676  1.0000  -1.8838   0.0000   0.0000   0.0000   0.3498
   6.400   1.3947   0.01048   0.00537  -0.1526  0.4622  1.0000  -1.9081   0.0000   0.0000   0.0000   0.3487
   6.500   1.4039   0.01060   0.00547  -0.1523  0.4572  1.0000  -1.9323   0.0000   0.0000   0.0000   0.3476
   6.600   1.4130   0.01073   0.00558  -0.1521  0.4520  1.0000  -1.9567   0.0000   0.0000   0.0000   0.3466
   6.700   1.4218   0.01086   0.00570  -0.1517  0.4471  1.0000  -1.9807   0.0000   0.0000   0.0000   0.3455
   6.800   1.4308   0.01099   0.00582  -0.1514  0.4416  1.0000  -2.0050   0.0000   0.0000   0.0000   0.3445
   6.900   1.4392   0.01114   0.00594  -0.1510  0.4364  1.0000  -2.0287   0.0000   0.0000   0.0000   0.3434
   7.000   1.4479   0.01128   0.00607  -0.1506  0.4306  1.0000  -2.0528   0.0000   0.0000   0.0000   0.3424
   7.100   1.4561   0.01144   0.00621  -0.1502  0.4251  1.0000  -2.0764   0.0000   0.0000   0.0000   0.3413
   7.200   1.4645   0.01158   0.00634  -0.1498  0.4192  1.0000  -2.1002   0.0000   0.0000   0.0000   0.3403
   7.300   1.4725   0.01174   0.00648  -0.1493  0.4137  1.0000  -2.1238   0.0000   0.0000   0.0000   0.3393
   7.400   1.4805   0.01190   0.00662  -0.1488  0.4078  1.0000  -2.1521   0.0000   0.0000   0.0000   0.3382
   7.500   1.4884   0.01206   0.00676  -0.1483  0.4022  1.0000  -2.1823   0.0000   0.0000   0.0000   0.3372
   7.600   1.4957   0.01224   0.00692  -0.1477  0.3965  1.0000  -2.2117   0.0000   0.0000   0.0000   0.3362
   7.700   1.5029   0.01239   0.00706  -0.1471  0.3911  1.0000  -2.2411   0.0000   0.0000   0.0000   0.3351
   7.800   1.5097   0.01258   0.00723  -0.1464  0.3856  1.0000  -2.2699   0.0000   0.0000   0.0000   0.3341
   7.900   1.5168   0.01275   0.00739  -0.1458  0.3804  1.0000  -2.2993   0.0000   0.0000   0.0000   0.3330
   8.000   1.5234   0.01295   0.00756  -0.1451  0.3751  1.0000  -2.3280   0.0000   0.0000   0.0000   0.3320
   8.100   1.5304   0.01313   0.00774  -0.1445  0.3702  1.0000  -2.3574   0.0000   0.0000   0.0000   0.3310
   8.200   1.5370   0.01333   0.00792  -0.1438  0.3651  1.0000  -2.3863   0.0000   0.0000   0.0000   0.3300
   8.300   1.5436   0.01353   0.00811  -0.1431  0.3601  1.0000  -2.4154   0.0000   0.0000   0.0000   0.3290
   8.400   1.5500   0.01374   0.00831  -0.1424  0.3546  1.0000  -2.4441   0.0000   0.0000   0.0000   0.3280
   8.500   1.5563   0.01396   0.00851  -0.1417  0.3493  1.0000  -2.4728   0.0000   0.0000   0.0000   0.3270
   8.600   1.5621   0.01420   0.00873  -0.1409  0.3436  1.0000  -2.5007   0.0000   0.0000   0.0000   0.3260
   8.700   1.5681   0.01443   0.00895  -0.1402  0.3378  1.0000  -2.5292   0.0000   0.0000   0.0000   0.3250
   8.900   1.5790   0.01496   0.00945  -0.1386  0.3256  1.0000  -2.5842   0.0000   0.0000   0.0000   0.3230
   9.000   1.5838   0.01527   0.00972  -0.1377  0.3199  1.0000  -2.6116   0.0000   0.0000   0.0000   0.3220
   9.100   1.5891   0.01556   0.00999  -0.1370  0.3136  1.0000  -2.6481   0.0000   0.0000   0.0000   0.3211
   9.200   1.5942   0.01586   0.01028  -0.1362  0.3079  1.0000  -2.6871   0.0000   0.0000   0.0000   0.3201
   9.300   1.5988   0.01620   0.01059  -0.1353  0.3021  1.0000  -2.7272   0.0000   0.0000   0.0000   0.3192
   9.400   1.6042   0.01649   0.01087  -0.1346  0.2965  1.0000  -2.7701   0.0000   0.0000   0.0000   0.3183
   9.500   1.6084   0.01686   0.01122  -0.1337  0.2912  1.0000  -2.8211   0.0000   0.0000   0.0000   0.3173
   9.600   1.6142   0.01715   0.01150  -0.1331  0.2855  1.0000  -2.8777   0.0000   0.0000   0.0000   0.3165
   9.700   1.6187   0.01752   0.01185  -0.1323  0.2802  1.0000  -2.9302   0.0000   0.0000   0.0000   0.3156
   9.800   1.6238   0.01786   0.01218  -0.1316  0.2746  1.0000  -2.9853   0.0000   0.0000   0.0000   0.3147
   9.900   1.6283   0.01824   0.01255  -0.1308  0.2696  1.0000  -3.0386   0.0000   0.0000   0.0000   0.3138
  10.000   1.6330   0.01861   0.01291  -0.1301  0.2646  1.0000  -3.0928   0.0000   0.0000   0.0000   0.3130
  10.100   1.6375   0.01900   0.01329  -0.1294  0.2599  1.0000  -3.1466   0.0000   0.0000   0.0000   0.3121
  10.200   1.6420   0.01939   0.01367  -0.1287  0.2550  1.0000  -3.2011   0.0000   0.0000   0.0000   0.3113
  10.300   1.6463   0.01981   0.01407  -0.1279  0.2503  1.0000  -3.2547   0.0000   0.0000   0.0000   0.3104
  10.400   1.6505   0.02023   0.01448  -0.1272  0.2452  1.0000  -3.3086   0.0000   0.0000   0.0000   0.3096
  10.500   1.6546   0.02067   0.01491  -0.1265  0.2403  1.0000  -3.3623   0.0000   0.0000   0.0000   0.3088
  10.600   1.6583   0.02114   0.01536  -0.1257  0.2351  1.0000  -3.4148   0.0000   0.0000   0.0000   0.3080
  10.700   1.6625   0.02158   0.01580  -0.1250  0.2299  1.0000  -3.4694   0.0000   0.0000   0.0000   0.3072
  10.900   1.6696   0.02256   0.01675  -0.1235  0.2191  1.0000  -3.5750   0.0000   0.0000   0.0000   0.3056
  11.000   1.6726   0.02310   0.01726  -0.1227  0.2140  1.0000  -3.6261   0.0000   0.0000   0.0000   0.3048
  11.100   1.6759   0.02362   0.01777  -0.1220  0.2086  1.0000  -3.6784   0.0000   0.0000   0.0000   0.3040
  11.200   1.6792   0.02415   0.01828  -0.1213  0.2036  1.0000  -3.7311   0.0000   0.0000   0.0000   0.3032
  11.300   1.6818   0.02473   0.01884  -0.1205  0.1986  1.0000  -3.7814   0.0000   0.0000   0.0000   0.3025
  11.400   1.6852   0.02526   0.01936  -0.1198  0.1936  1.0000  -3.8352   0.0000   0.0000   0.0000   0.3017
  11.500   1.6874   0.02588   0.01996  -0.1190  0.1891  1.0000  -3.8843   0.0000   0.0000   0.0000   0.3009
  11.600   1.6908   0.02641   0.02049  -0.1183  0.1843  1.0000  -3.9384   0.0000   0.0000   0.0000   0.3002
  11.700   1.6931   0.02702   0.02109  -0.1176  0.1799  1.0000  -3.9885   0.0000   0.0000   0.0000   0.2995
  11.800   1.6962   0.02759   0.02165  -0.1169  0.1751  1.0000  -4.0416   0.0000   0.0000   0.0000   0.2987
  11.900   1.6987   0.02821   0.02226  -0.1161  0.1706  1.0000  -4.0928   0.0000   0.0000   0.0000   0.2980
  12.000   1.7011   0.02884   0.02288  -0.1154  0.1659  1.0000  -4.1438   0.0000   0.0000   0.0000   0.2973
  12.100   1.7036   0.02946   0.02349  -0.1147  0.1616  1.0000  -4.1956   0.0000   0.0000   0.0000   0.2966
  12.200   1.7054   0.03014   0.02416  -0.1140  0.1573  1.0000  -4.2445   0.0000   0.0000   0.0000   0.2959
  12.300   1.7078   0.03078   0.02479  -0.1133  0.1530  1.0000  -4.2961   0.0000   0.0000   0.0000   0.2952
  12.500   1.7113   0.03216   0.02616  -0.1119  0.1451  1.0000  -4.3948   0.0000   0.0000   0.0000   0.2938
  12.600   1.7122   0.03292   0.02690  -0.1111  0.1414  1.0000  -4.4411   0.0000   0.0000   0.0000   0.2931
  12.700   1.7147   0.03357   0.02756  -0.1105  0.1375  1.0000  -4.4939   0.0000   0.0000   0.0000   0.2924
  12.900   1.7180   0.03504   0.02902  -0.1091  0.1300  1.0000  -4.5926   0.0000   0.0000   0.0000   0.2911
  13.100   1.7208   0.03656   0.03053  -0.1078  0.1228  1.0000  -4.6904   0.0000   0.0000   0.0000   0.2898
  13.300   1.7233   0.03814   0.03211  -0.1065  0.1159  1.0000  -4.7870   0.0000   0.0000   0.0000   0.2885
  13.400   1.7236   0.03902   0.03298  -0.1058  0.1127  1.0000  -4.8318   0.0000   0.0000   0.0000   0.2879
  13.500   1.7253   0.03980   0.03376  -0.1053  0.1094  1.0000  -4.8823   0.0000   0.0000   0.0000   0.2873
  13.600   1.7256   0.04070   0.03465  -0.1046  0.1063  1.0000  -4.9271   0.0000   0.0000   0.0000   0.2867
  13.700   1.7270   0.04151   0.03547  -0.1041  0.1032  1.0000  -4.9770   0.0000   0.0000   0.0000   0.2861
  13.800   1.7276   0.04241   0.03637  -0.1035  0.1003  1.0000  -5.0230   0.0000   0.0000   0.0000   0.2855
  13.900   1.7286   0.04328   0.03724  -0.1029  0.0975  1.0000  -5.0713   0.0000   0.0000   0.0000   0.2849
  14.000   1.7296   0.04416   0.03812  -0.1024  0.0946  1.0000  -5.1194   0.0000   0.0000   0.0000   0.2844
  14.100   1.7300   0.04510   0.03907  -0.1018  0.0921  1.0000  -5.1650   0.0000   0.0000   0.0000   0.2838
  14.200   1.7313   0.04596   0.03993  -0.1013  0.0894  1.0000  -5.2151   0.0000   0.0000   0.0000   0.2832
  14.300   1.7314   0.04694   0.04092  -0.1008  0.0870  1.0000  -5.2594   0.0000   0.0000   0.0000   0.2827
  14.400   1.7327   0.04781   0.04180  -0.1003  0.0847  1.0000  -5.3092   0.0000   0.0000   0.0000   0.2822
  14.500   1.7333   0.04875   0.04275  -0.0998  0.0823  1.0000  -5.3564   0.0000   0.0000   0.0000   0.2816
  14.600   1.7333   0.04977   0.04377  -0.0993  0.0802  1.0000  -5.4007   0.0000   0.0000   0.0000   0.2811
  14.700   1.7345   0.05068   0.04470  -0.0989  0.0781  1.0000  -5.4501   0.0000   0.0000   0.0000   0.2806
  14.800   1.7345   0.05172   0.04574  -0.0984  0.0760  1.0000  -5.4947   0.0000   0.0000   0.0000   0.2801
  14.900   1.7347   0.05274   0.04678  -0.0980  0.0742  1.0000  -5.5400   0.0000   0.0000   0.0000   0.2796
  15.000   1.7356   0.05371   0.04777  -0.0976  0.0722  1.0000  -5.5884   0.0000   0.0000   0.0000   0.2791
  15.100   1.7354   0.05479   0.04885  -0.0972  0.0703  1.0000  -5.6324   0.0000   0.0000   0.0000   0.2787
  15.200   1.7354   0.05586   0.04993  -0.0968  0.0686  1.0000  -5.6769   0.0000   0.0000   0.0000   0.2782
  15.300   1.7360   0.05689   0.05098  -0.0964  0.0668  1.0000  -5.7241   0.0000   0.0000   0.0000   0.2778
  15.400   1.7358   0.05800   0.05210  -0.0961  0.0651  1.0000  -5.7676   0.0000   0.0000   0.0000   0.2773
  15.500   1.7351   0.05917   0.05328  -0.0957  0.0635  1.0000  -5.8093   0.0000   0.0000   0.0000   0.2769
  15.600   1.7358   0.06018   0.05432  -0.0954  0.0618  1.0000  -5.8573   0.0000   0.0000   0.0000   0.2765
  15.700   1.7355   0.06132   0.05548  -0.0950  0.0602  1.0000  -5.9003   0.0000   0.0000   0.0000   0.2760
  15.900   1.7347   0.06363   0.05783  -0.0944  0.0572  1.0000  -5.9862   0.0000   0.0000   0.0000   0.2752
  16.000   1.7342   0.06482   0.05904  -0.0941  0.0557  1.0000  -6.0284   0.0000   0.0000   0.0000   0.2748
  16.100   1.7330   0.06610   0.06032  -0.0939  0.0543  1.0000  -6.0673   0.0000   0.0000   0.0000   0.2745
  16.200   1.7326   0.06730   0.06155  -0.0936  0.0529  1.0000  -6.1099   0.0000   0.0000   0.0000   0.2741
  16.300   1.7325   0.06847   0.06274  -0.0934  0.0514  1.0000  -6.1540   0.0000   0.0000   0.0000   0.2737
  16.400   1.7313   0.06976   0.06405  -0.0932  0.0500  1.0000  -6.1932   0.0000   0.0000   0.0000   0.2734
  16.500   1.7298   0.07112   0.06542  -0.0930  0.0488  1.0000  -6.2302   0.0000   0.0000   0.0000   0.2731
  16.600   1.7296   0.07232   0.06666  -0.0928  0.0474  1.0000  -6.2736   0.0000   0.0000   0.0000   0.2727
  16.700   1.7283   0.07366   0.06802  -0.0926  0.0461  1.0000  -6.3118   0.0000   0.0000   0.0000   0.2724
  16.800   1.7263   0.07509   0.06946  -0.0924  0.0449  1.0000  -6.3465   0.0000   0.0000   0.0000   0.2721
  16.900   1.7250   0.07646   0.07085  -0.0923  0.0438  1.0000  -6.3841   0.0000   0.0000   0.0000   0.2719
  17.000   1.7239   0.07778   0.07220  -0.0922  0.0426  1.0000  -6.4231   0.0000   0.0000   0.0000   0.2716
  17.100   1.7218   0.07925   0.07369  -0.0921  0.0414  1.0000  -6.4566   0.0000   0.0000   0.0000   0.2713
  17.200   1.7190   0.08080   0.07525  -0.0919  0.0404  1.0000  -6.4867   0.0000   0.0000   0.0000   0.2711
  17.300   1.7175   0.08221   0.07669  -0.0919  0.0394  1.0000  -6.5229   0.0000   0.0000   0.0000   0.2709
  17.400   1.7160   0.08362   0.07813  -0.0918  0.0383  1.0000  -6.5592   0.0000   0.0000   0.0000   0.2706
  17.500   1.7136   0.08516   0.07970  -0.0918  0.0373  1.0000  -6.5906   0.0000   0.0000   0.0000   0.2704
  17.600   1.7105   0.08680   0.08136  -0.0918  0.0365  1.0000  -6.6183   0.0000   0.0000   0.0000   0.2703
  17.700   1.7082   0.08836   0.08294  -0.0918  0.0356  1.0000  -6.6499   0.0000   0.0000   0.0000   0.2701
  17.800   1.7069   0.08978   0.08440  -0.0918  0.0346  1.0000  -6.6863   0.0000   0.0000   0.0000   0.2699
  17.900   1.7047   0.09133   0.08599  -0.0918  0.0337  1.0000  -6.7180   0.0000   0.0000   0.0000   0.2697
  18.000   1.7016   0.09300   0.08768  -0.0919  0.0329  1.0000  -6.7452   0.0000   0.0000   0.0000   0.2696
  18.200   1.6965   0.09624   0.09098  -0.0921  0.0314  1.0000  -6.8033   0.0000   0.0000   0.0000   0.2694
  18.300   1.6945   0.09780   0.09256  -0.0922  0.0305  1.0000  -6.8356   0.0000   0.0000   0.0000   0.2693
  18.400   1.6918   0.09946   0.09425  -0.0924  0.0298  1.0000  -6.8696   0.0000   0.0000   0.0000   0.2692
  18.500   1.6884   0.10120   0.09602  -0.0926  0.0291  1.0000  -6.9004   0.0000   0.0000   0.0000   0.2691
  18.600   1.6843   0.10304   0.09789  -0.0928  0.0285  1.0000  -6.9262   0.0000   0.0000   0.0000   0.2691
  18.700   1.6824   0.10459   0.09948  -0.0929  0.0278  1.0000  -6.9659   0.0000   0.0000   0.0000   0.2690
  18.800   1.6802   0.10620   0.10112  -0.0932  0.0272  1.0000  -7.0033   0.0000   0.0000   0.0000   0.2690
  18.900   1.6775   0.10787   0.10282  -0.0934  0.0265  1.0000  -7.0377   0.0000   0.0000   0.0000   0.2690
  19.000   1.6743   0.10966   0.10463  -0.0937  0.0259  1.0000  -7.0679   0.0000   0.0000   0.0000   0.2690
  19.100   1.6705   0.11151   0.10651  -0.0940  0.0254  1.0000  -7.0948   0.0000   0.0000   0.0000   0.2690
  19.200   1.6664   0.11343   0.10846  -0.0944  0.0249  1.0000  -7.1183   0.0000   0.0000   0.0000   0.2691
  19.300   1.6645   0.11503   0.11011  -0.0947  0.0244  1.0000  -7.1563   0.0000   0.0000   0.0000   0.2691
  19.400   1.6619   0.11674   0.11185  -0.0951  0.0239  1.0000  -7.1896   0.0000   0.0000   0.0000   0.2692
  19.500   1.6591   0.11849   0.11363  -0.0955  0.0234  1.0000  -7.2214   0.0000   0.0000   0.0000   0.2692
  19.600   1.6558   0.12033   0.11551  -0.0959  0.0229  1.0000  -7.2493   0.0000   0.0000   0.0000   0.2694
  19.700   1.6522   0.12221   0.11741  -0.0964  0.0225  1.0000  -7.2749   0.0000   0.0000   0.0000   0.2695
  19.800   1.6481   0.12420   0.11943  -0.0969  0.0221  1.0000  -7.2959   0.0000   0.0000   0.0000   0.2697
  20.000   1.6413   0.12796   0.12326  -0.0980  0.0214  1.0000  -7.3466   0.0000   0.0000   0.0000   0.2701


