xflr5 v6.57

 Calculated polar for: rev_root_140

 1 1 Reynolds number fixed          Mach number fixed         

 xtrf =   1.000 (top)        1.000 (bottom)
 Mach =   0.000     Re =     0.520 e 6     Ncrit =   9.000

  alpha     CL        CD       CDp       Cm    Top Xtr Bot Xtr   Cpmin    Chinge    XCp    
 ------- -------- --------- --------- -------- ------- ------- -------- --------- ---------
 -10.000  -0.3695   0.03171   0.02783  -0.1424  0.8445  0.0228  -5.7344   0.0000   0.0000   0.0000  -0.1596
  -9.900  -0.3662   0.02981   0.02570  -0.1443  0.8422  0.0229  -5.7510   0.0000   0.0000   0.0000  -0.1680
  -9.800  -0.3607   0.02840   0.02408  -0.1455  0.8398  0.0231  -5.7375   0.0000   0.0000   0.0000  -0.1776
  -9.700  -0.3535   0.02740   0.02287  -0.1464  0.8378  0.0233  -5.7000   0.0000   0.0000   0.0000  -0.1885
  -9.600  -0.3469   0.02614   0.02140  -0.1473  0.8360  0.0235  -5.6706   0.0000   0.0000   0.0000  -0.1992
  -9.500  -0.3401   0.02487   0.02003  -0.1479  0.8344  0.0237  -5.6272   0.0000   0.0000   0.0000  -0.2097
  -9.400  -0.3312   0.02423   0.01935  -0.1483  0.8324  0.0239  -5.5484   0.0000   0.0000   0.0000  -0.2225
  -9.300  -0.3217   0.02378   0.01887  -0.1485  0.8306  0.0241  -5.4604   0.0000   0.0000   0.0000  -0.2369
  -9.200  -0.3120   0.02336   0.01841  -0.1488  0.8289  0.0243  -5.3725   0.0000   0.0000   0.0000  -0.2525
  -9.100  -0.3022   0.02292   0.01791  -0.1490  0.8274  0.0245  -5.2885   0.0000   0.0000   0.0000  -0.2692
  -9.000  -0.2923   0.02248   0.01741  -0.1493  0.8261  0.0247  -5.2051   0.0000   0.0000   0.0000  -0.2873
  -8.900  -0.2824   0.02203   0.01691  -0.1495  0.8243  0.0249  -5.1236   0.0000   0.0000   0.0000  -0.3065
  -8.800  -0.2724   0.02157   0.01638  -0.1497  0.8225  0.0251  -5.0444   0.0000   0.0000   0.0000  -0.3272
  -8.700  -0.2624   0.02109   0.01583  -0.1499  0.8209  0.0253  -4.9668   0.0000   0.0000   0.0000  -0.3497
  -8.600  -0.2523   0.02061   0.01527  -0.1502  0.8194  0.0256  -4.8903   0.0000   0.0000   0.0000  -0.3742
  -8.500  -0.2420   0.02014   0.01470  -0.1504  0.8180  0.0258  -4.8141   0.0000   0.0000   0.0000  -0.4011
  -8.400  -0.2316   0.01969   0.01415  -0.1506  0.8168  0.0261  -4.7379   0.0000   0.0000   0.0000  -0.4308
  -8.300  -0.2213   0.01925   0.01363  -0.1507  0.8151  0.0263  -4.6621   0.0000   0.0000   0.0000  -0.4628
  -8.200  -0.2108   0.01884   0.01314  -0.1509  0.8134  0.0265  -4.5880   0.0000   0.0000   0.0000  -0.4985
  -8.100  -0.2002   0.01847   0.01268  -0.1510  0.8118  0.0268  -4.5185   0.0000   0.0000   0.0000  -0.5384
  -8.000  -0.1894   0.01814   0.01226  -0.1512  0.8104  0.0270  -4.4471   0.0000   0.0000   0.0000  -0.5836
  -7.900  -0.1784   0.01786   0.01189  -0.1513  0.8091  0.0272  -4.3732   0.0000   0.0000   0.0000  -0.6351
  -7.800  -0.1678   0.01740   0.01134  -0.1515  0.8079  0.0275  -4.3058   0.0000   0.0000   0.0000  -0.6911
  -7.700  -0.1576   0.01688   0.01082  -0.1516  0.8065  0.0278  -4.2345   0.0000   0.0000   0.0000  -0.7523
  -7.600  -0.1470   0.01660   0.01054  -0.1517  0.8049  0.0281  -4.1531   0.0000   0.0000   0.0000  -0.8247
  -7.500  -0.1361   0.01638   0.01032  -0.1518  0.8034  0.0284  -4.0697   0.0000   0.0000   0.0000  -0.9106
  -7.400  -0.1251   0.01618   0.01010  -0.1520  0.8019  0.0288  -3.9871   0.0000   0.0000   0.0000  -1.0128
  -7.300  -0.1140   0.01598   0.00987  -0.1521  0.8006  0.0292  -3.9065   0.0000   0.0000   0.0000  -1.1357
  -7.200  -0.1029   0.01577   0.00961  -0.1522  0.7994  0.0295  -3.8291   0.0000   0.0000   0.0000  -1.2860
  -7.100  -0.0917   0.01555   0.00934  -0.1523  0.7982  0.0299  -3.7603   0.0000   0.0000   0.0000  -1.4736
  -7.000  -0.0807   0.01532   0.00908  -0.1524  0.7967  0.0302  -3.6942   0.0000   0.0000   0.0000  -1.7079
  -6.900  -0.0697   0.01509   0.00881  -0.1524  0.7950  0.0305  -3.6287   0.0000   0.0000   0.0000  -2.0158
  -6.800  -0.0586   0.01487   0.00856  -0.1525  0.7934  0.0308  -3.5630   0.0000   0.0000   0.0000  -2.4446
  -6.700  -0.0474   0.01468   0.00832  -0.1526  0.7919  0.0311  -3.4967   0.0000   0.0000   0.0000  -3.0823
  -6.600  -0.0360   0.01452   0.00810  -0.1526  0.7905  0.0314  -3.4294   0.0000   0.0000   0.0000  -4.1316
  -6.500  -0.0251   0.01417   0.00772  -0.1528  0.7893  0.0318  -3.3680   0.0000   0.0000   0.0000  -6.0458
  -6.400  -0.0140   0.01388   0.00742  -0.1529  0.7883  0.0322  -3.3013   0.0000   0.0000   0.0000  -11.0256
  -6.300  -0.0031   0.01368   0.00723  -0.1530  0.7866  0.0326  -3.2318   0.0000   0.0000   0.0000  -51.1387
  -6.200   0.0081   0.01352   0.00708  -0.1531  0.7851  0.0331  -3.1611   0.0000   0.0000   0.0000  19.8503
  -6.100   0.0193   0.01337   0.00692  -0.1532  0.7836  0.0336  -3.0907   0.0000   0.0000   0.0000   8.4259
  -6.000   0.0307   0.01323   0.00676  -0.1533  0.7822  0.0342  -3.0215   0.0000   0.0000   0.0000   5.4004
  -5.900   0.0421   0.01310   0.00659  -0.1534  0.7808  0.0348  -2.9536   0.0000   0.0000   0.0000   4.0020
  -5.800   0.0536   0.01297   0.00642  -0.1535  0.7796  0.0354  -2.8866   0.0000   0.0000   0.0000   3.1959
  -5.700   0.0653   0.01286   0.00625  -0.1536  0.7786  0.0359  -2.8200   0.0000   0.0000   0.0000   2.6716
  -5.600   0.0762   0.01258   0.00599  -0.1537  0.7769  0.0365  -2.7590   0.0000   0.0000   0.0000   2.3244
  -5.500   0.0874   0.01238   0.00581  -0.1538  0.7754  0.0372  -2.6933   0.0000   0.0000   0.0000   2.0595
  -5.400   0.0987   0.01223   0.00566  -0.1539  0.7740  0.0379  -2.6265   0.0000   0.0000   0.0000   1.8515
  -5.300   0.1102   0.01210   0.00552  -0.1540  0.7726  0.0387  -2.5636   0.0000   0.0000   0.0000   1.6849
  -5.200   0.1217   0.01198   0.00537  -0.1541  0.7714  0.0396  -2.5057   0.0000   0.0000   0.0000   1.5489
  -5.100   0.1334   0.01188   0.00523  -0.1542  0.7702  0.0405  -2.4487   0.0000   0.0000   0.0000   1.4355
  -5.000   0.1450   0.01168   0.00502  -0.1544  0.7691  0.0416  -2.3931   0.0000   0.0000   0.0000   1.3413
  -4.900   0.1564   0.01155   0.00490  -0.1545  0.7677  0.0429  -2.3347   0.0000   0.0000   0.0000   1.2622
  -4.800   0.1677   0.01144   0.00479  -0.1546  0.7661  0.0444  -2.2773   0.0000   0.0000   0.0000   1.1936
  -4.700   0.1792   0.01133   0.00467  -0.1547  0.7646  0.0462  -2.2215   0.0000   0.0000   0.0000   1.1331
  -4.600   0.1907   0.01119   0.00455  -0.1548  0.7631  0.0483  -2.1634   0.0000   0.0000   0.0000   1.0802
  -4.500   0.2024   0.01111   0.00444  -0.1549  0.7618  0.0509  -2.1066   0.0000   0.0000   0.0000   1.0324
  -4.400   0.2140   0.01097   0.00432  -0.1551  0.7606  0.0537  -2.0494   0.0000   0.0000   0.0000   0.9902
  -4.300   0.2258   0.01090   0.00422  -0.1552  0.7594  0.0571  -1.9928   0.0000   0.0000   0.0000   0.9517
  -4.200   0.2373   0.01079   0.00412  -0.1553  0.7580  0.0607  -1.9358   0.0000   0.0000   0.0000   0.9179
  -4.100   0.2486   0.01068   0.00403  -0.1554  0.7563  0.0645  -1.8859   0.0000   0.0000   0.0000   0.8874
  -4.000   0.2601   0.01060   0.00395  -0.1555  0.7546  0.0688  -1.8350   0.0000   0.0000   0.0000   0.8592
  -3.900   0.2716   0.01048   0.00386  -0.1556  0.7531  0.0734  -1.7834   0.0000   0.0000   0.0000   0.8335
  -3.800   0.2833   0.01038   0.00377  -0.1557  0.7517  0.0784  -1.7316   0.0000   0.0000   0.0000   0.8097
  -3.700   0.2950   0.01030   0.00370  -0.1559  0.7504  0.0841  -1.6796   0.0000   0.0000   0.0000   0.7876
  -3.600   0.3067   0.01023   0.00363  -0.1560  0.7492  0.0905  -1.6274   0.0000   0.0000   0.0000   0.7671
  -3.500   0.3182   0.01016   0.00357  -0.1561  0.7477  0.0973  -1.5762   0.0000   0.0000   0.0000   0.7486
  -3.400   0.3295   0.01008   0.00353  -0.1562  0.7460  0.1048  -1.5253   0.0000   0.0000   0.0000   0.7314
  -3.300   0.3410   0.01000   0.00348  -0.1563  0.7444  0.1131  -1.4743   0.0000   0.0000   0.0000   0.7152
  -3.200   0.3526   0.00992   0.00343  -0.1564  0.7429  0.1223  -1.4233   0.0000   0.0000   0.0000   0.7000
  -3.100   0.3643   0.00985   0.00338  -0.1566  0.7415  0.1322  -1.3725   0.0000   0.0000   0.0000   0.6857
  -3.000   0.3760   0.00979   0.00333  -0.1567  0.7402  0.1424  -1.3219   0.0000   0.0000   0.0000   0.6723
  -2.900   0.3878   0.00973   0.00329  -0.1569  0.7391  0.1529  -1.2715   0.0000   0.0000   0.0000   0.6596
  -2.700   0.4106   0.00960   0.00325  -0.1571  0.7358  0.1753  -1.1736   0.0000   0.0000   0.0000   0.6369
  -2.600   0.4221   0.00954   0.00322  -0.1572  0.7342  0.1875  -1.1251   0.0000   0.0000   0.0000   0.6264
  -2.500   0.4336   0.00948   0.00319  -0.1573  0.7327  0.2001  -1.0768   0.0000   0.0000   0.0000   0.6164
  -2.400   0.4453   0.00942   0.00316  -0.1574  0.7312  0.2129  -1.0321   0.0000   0.0000   0.0000   0.6069
  -2.300   0.4570   0.00937   0.00313  -0.1576  0.7298  0.2259  -0.9884   0.0000   0.0000   0.0000   0.5978
  -2.200   0.4688   0.00933   0.00310  -0.1577  0.7285  0.2389  -0.9449   0.0000   0.0000   0.0000   0.5891
  -2.100   0.4800   0.00927   0.00309  -0.1578  0.7266  0.2510  -0.9031   0.0000   0.0000   0.0000   0.5811
  -2.000   0.4914   0.00922   0.00307  -0.1578  0.7247  0.2633  -0.8612   0.0000   0.0000   0.0000   0.5734
  -1.900   0.5029   0.00917   0.00306  -0.1579  0.7229  0.2765  -0.8285   0.0000   0.0000   0.0000   0.5660
  -1.800   0.5146   0.00912   0.00303  -0.1580  0.7212  0.2906  -0.8365   0.0000   0.0000   0.0000   0.5589
  -1.700   0.5263   0.00908   0.00301  -0.1582  0.7198  0.3046  -0.8446   0.0000   0.0000   0.0000   0.5520
  -1.600   0.5381   0.00904   0.00299  -0.1583  0.7185  0.3191  -0.8527   0.0000   0.0000   0.0000   0.5455
  -1.500   0.5493   0.00899   0.00300  -0.1584  0.7166  0.3347  -0.8604   0.0000   0.0000   0.0000   0.5394
  -1.400   0.5607   0.00895   0.00299  -0.1585  0.7147  0.3515  -0.8683   0.0000   0.0000   0.0000   0.5334
  -1.300   0.5722   0.00889   0.00299  -0.1586  0.7130  0.3686  -0.8762   0.0000   0.0000   0.0000   0.5277
  -1.200   0.5838   0.00885   0.00298  -0.1587  0.7114  0.3860  -0.8842   0.0000   0.0000   0.0000   0.5222
  -1.100   0.5955   0.00881   0.00297  -0.1588  0.7099  0.4033  -0.8923   0.0000   0.0000   0.0000   0.5169
  -1.000   0.6072   0.00877   0.00296  -0.1589  0.7085  0.4203  -0.9004   0.0000   0.0000   0.0000   0.5118
  -0.900   0.6187   0.00874   0.00297  -0.1590  0.7068  0.4373  -0.9093   0.0000   0.0000   0.0000   0.5069
  -0.700   0.6414   0.00865   0.00299  -0.1592  0.7029  0.4742  -0.9273   0.0000   0.0000   0.0000   0.4976
  -0.500   0.6645   0.00856   0.00299  -0.1594  0.6995  0.5141  -0.9457   0.0000   0.0000   0.0000   0.4890
  -0.400   0.6761   0.00853   0.00299  -0.1595  0.6981  0.5361  -0.9550   0.0000   0.0000   0.0000   0.4848
  -0.300   0.6874   0.00849   0.00301  -0.1595  0.6961  0.5594  -0.9643   0.0000   0.0000   0.0000   0.4808
  -0.200   0.6985   0.00843   0.00304  -0.1595  0.6938  0.5824  -0.9735   0.0000   0.0000   0.0000   0.4770
  -0.100   0.7097   0.00839   0.00306  -0.1595  0.6917  0.6057  -0.9828   0.0000   0.0000   0.0000   0.4732
   0.000   0.7210   0.00835   0.00307  -0.1595  0.6897  0.6279  -0.9921   0.0000   0.0000   0.0000   0.4696
   0.100   0.7323   0.00832   0.00307  -0.1595  0.6880  0.6488  -1.0016   0.0000   0.0000   0.0000   0.4660
   0.200   0.7434   0.00830   0.00310  -0.1595  0.6860  0.6696  -1.0109   0.0000   0.0000   0.0000   0.4625
   0.300   0.7543   0.00828   0.00313  -0.1594  0.6837  0.6900  -1.0200   0.0000   0.0000   0.0000   0.4592
   0.400   0.7652   0.00825   0.00316  -0.1593  0.6815  0.7090  -1.0292   0.0000   0.0000   0.0000   0.4559
   0.500   0.7763   0.00824   0.00318  -0.1593  0.6795  0.7272  -1.0384   0.0000   0.0000   0.0000   0.4527
   0.600   0.7873   0.00823   0.00319  -0.1592  0.6778  0.7435  -1.0477   0.0000   0.0000   0.0000   0.4496
   0.700   0.7984   0.00824   0.00321  -0.1591  0.6762  0.7582  -1.0571   0.0000   0.0000   0.0000   0.4466
   0.800   0.8090   0.00823   0.00324  -0.1590  0.6738  0.7712  -1.0662   0.0000   0.0000   0.0000   0.4436
   0.900   0.8198   0.00822   0.00326  -0.1589  0.6716  0.7833  -1.0767   0.0000   0.0000   0.0000   0.4408
   1.000   0.8307   0.00822   0.00328  -0.1588  0.6695  0.7946  -1.0873   0.0000   0.0000   0.0000   0.4380
   1.100   0.8415   0.00822   0.00328  -0.1587  0.6676  0.8054  -1.0979   0.0000   0.0000   0.0000   0.4352
   1.200   0.8523   0.00823   0.00329  -0.1585  0.6658  0.8162  -1.1086   0.0000   0.0000   0.0000   0.4325
   1.300   0.8626   0.00821   0.00332  -0.1583  0.6630  0.8273  -1.1188   0.0000   0.0000   0.0000   0.4299
   1.400   0.8729   0.00820   0.00334  -0.1581  0.6604  0.8387  -1.1291   0.0000   0.0000   0.0000   0.4274
   1.500   0.8831   0.00819   0.00334  -0.1578  0.6580  0.8502  -1.1396   0.0000   0.0000   0.0000   0.4248
   1.600   0.8931   0.00819   0.00334  -0.1575  0.6558  0.8616  -1.1502   0.0000   0.0000   0.0000   0.4223
   1.700   0.9027   0.00817   0.00336  -0.1571  0.6530  0.8732  -1.1603   0.0000   0.0000   0.0000   0.4199
   1.800   0.9121   0.00816   0.00337  -0.1567  0.6501  0.8857  -1.1705   0.0000   0.0000   0.0000   0.4175
   1.900   0.9213   0.00814   0.00337  -0.1562  0.6475  0.8987  -1.1804   0.0000   0.0000   0.0000   0.4151
   2.100   0.9383   0.00809   0.00335  -0.1548  0.6426  0.9312  -1.1996   0.0000   0.0000   0.0000   0.4103
   2.200   0.9482   0.00804   0.00333  -0.1545  0.6398  0.9619  -1.2116   0.0000   0.0000   0.0000   0.4081
   2.300   0.9612   0.00803   0.00332  -0.1549  0.6372  1.0000  -1.2263   0.0000   0.0000   0.0000   0.4062
   2.400   0.9729   0.00808   0.00333  -0.1550  0.6349  1.0000  -1.2400   0.0000   0.0000   0.0000   0.4043
   2.500   0.9844   0.00812   0.00335  -0.1552  0.6322  1.0000  -1.2537   0.0000   0.0000   0.0000   0.4024
   2.600   0.9958   0.00815   0.00338  -0.1553  0.6292  1.0000  -1.2673   0.0000   0.0000   0.0000   0.4006
   2.700   1.0072   0.00819   0.00340  -0.1554  0.6263  1.0000  -1.2809   0.0000   0.0000   0.0000   0.3988
   2.800   1.0186   0.00824   0.00342  -0.1554  0.6238  1.0000  -1.2946   0.0000   0.0000   0.0000   0.3970
   2.900   1.0298   0.00827   0.00345  -0.1555  0.6205  1.0000  -1.3082   0.0000   0.0000   0.0000   0.3952
   3.000   1.0410   0.00831   0.00348  -0.1556  0.6170  1.0000  -1.3217   0.0000   0.0000   0.0000   0.3935
   3.100   1.0521   0.00836   0.00350  -0.1556  0.6140  1.0000  -1.3353   0.0000   0.0000   0.0000   0.3918
   3.200   1.0632   0.00840   0.00354  -0.1556  0.6106  1.0000  -1.3489   0.0000   0.0000   0.0000   0.3902
   3.300   1.0742   0.00844   0.00357  -0.1556  0.6068  1.0000  -1.3624   0.0000   0.0000   0.0000   0.3886
   3.400   1.0852   0.00849   0.00360  -0.1556  0.6034  1.0000  -1.3760   0.0000   0.0000   0.0000   0.3870
   3.500   1.0962   0.00855   0.00363  -0.1556  0.6001  1.0000  -1.3895   0.0000   0.0000   0.0000   0.3854
   3.600   1.1071   0.00859   0.00367  -0.1556  0.5963  1.0000  -1.4031   0.0000   0.0000   0.0000   0.3839
   3.700   1.1180   0.00865   0.00371  -0.1556  0.5930  1.0000  -1.4166   0.0000   0.0000   0.0000   0.3823
   3.800   1.1288   0.00871   0.00375  -0.1556  0.5899  1.0000  -1.4305   0.0000   0.0000   0.0000   0.3809
   3.900   1.1397   0.00876   0.00381  -0.1556  0.5861  1.0000  -1.4445   0.0000   0.0000   0.0000   0.3794
   4.000   1.1505   0.00882   0.00385  -0.1556  0.5827  1.0000  -1.4594   0.0000   0.0000   0.0000   0.3780
   4.100   1.1612   0.00889   0.00390  -0.1555  0.5795  1.0000  -1.4746   0.0000   0.0000   0.0000   0.3765
   4.200   1.1720   0.00894   0.00395  -0.1555  0.5756  1.0000  -1.4901   0.0000   0.0000   0.0000   0.3751
   4.300   1.1825   0.00901   0.00400  -0.1554  0.5719  1.0000  -1.5058   0.0000   0.0000   0.0000   0.3738
   4.400   1.1931   0.00909   0.00405  -0.1554  0.5685  1.0000  -1.5215   0.0000   0.0000   0.0000   0.3724
   4.500   1.2037   0.00914   0.00411  -0.1553  0.5645  1.0000  -1.5373   0.0000   0.0000   0.0000   0.3711
   4.700   1.2245   0.00930   0.00424  -0.1551  0.5568  1.0000  -1.5694   0.0000   0.0000   0.0000   0.3684
   4.800   1.2349   0.00936   0.00430  -0.1550  0.5523  1.0000  -1.5862   0.0000   0.0000   0.0000   0.3672
   4.900   1.2450   0.00945   0.00436  -0.1549  0.5482  1.0000  -1.6027   0.0000   0.0000   0.0000   0.3659
   5.000   1.2553   0.00953   0.00443  -0.1548  0.5436  1.0000  -1.6195   0.0000   0.0000   0.0000   0.3646
   5.100   1.2654   0.00961   0.00450  -0.1546  0.5391  1.0000  -1.6361   0.0000   0.0000   0.0000   0.3634
   5.200   1.2754   0.00970   0.00457  -0.1545  0.5349  1.0000  -1.6527   0.0000   0.0000   0.0000   0.3622
   5.300   1.2855   0.00978   0.00465  -0.1543  0.5302  1.0000  -1.6712   0.0000   0.0000   0.0000   0.3610
   5.400   1.2953   0.00989   0.00473  -0.1541  0.5260  1.0000  -1.6906   0.0000   0.0000   0.0000   0.3597
   5.500   1.3054   0.00997   0.00481  -0.1540  0.5216  1.0000  -1.7104   0.0000   0.0000   0.0000   0.3586
   5.600   1.3152   0.01007   0.00490  -0.1538  0.5171  1.0000  -1.7300   0.0000   0.0000   0.0000   0.3574
   5.700   1.3249   0.01017   0.00498  -0.1536  0.5128  1.0000  -1.7495   0.0000   0.0000   0.0000   0.3562
   5.800   1.3347   0.01026   0.00507  -0.1534  0.5080  1.0000  -1.7692   0.0000   0.0000   0.0000   0.3551
   6.000   1.3539   0.01048   0.00526  -0.1530  0.4986  1.0000  -1.8083   0.0000   0.0000   0.0000   0.3528
   6.100   1.3630   0.01060   0.00536  -0.1527  0.4937  1.0000  -1.8290   0.0000   0.0000   0.0000   0.3517
   6.200   1.3725   0.01071   0.00546  -0.1524  0.4886  1.0000  -1.8534   0.0000   0.0000   0.0000   0.3506
   6.300   1.3816   0.01084   0.00557  -0.1521  0.4835  1.0000  -1.8774   0.0000   0.0000   0.0000   0.3495
   6.400   1.3908   0.01095   0.00568  -0.1518  0.4783  1.0000  -1.9016   0.0000   0.0000   0.0000   0.3484
   6.500   1.3997   0.01108   0.00579  -0.1515  0.4730  1.0000  -1.9256   0.0000   0.0000   0.0000   0.3473
   6.600   1.4087   0.01121   0.00590  -0.1512  0.4679  1.0000  -1.9497   0.0000   0.0000   0.0000   0.3463
   6.700   1.4176   0.01134   0.00602  -0.1508  0.4626  1.0000  -1.9738   0.0000   0.0000   0.0000   0.3452
   6.800   1.4263   0.01148   0.00614  -0.1505  0.4577  1.0000  -1.9977   0.0000   0.0000   0.0000   0.3441
   6.900   1.4351   0.01160   0.00626  -0.1501  0.4525  1.0000  -2.0219   0.0000   0.0000   0.0000   0.3431
   7.000   1.4433   0.01176   0.00639  -0.1497  0.4475  1.0000  -2.0454   0.0000   0.0000   0.0000   0.3420
   7.100   1.4519   0.01189   0.00652  -0.1493  0.4418  1.0000  -2.0694   0.0000   0.0000   0.0000   0.3410
   7.200   1.4597   0.01206   0.00666  -0.1488  0.4366  1.0000  -2.0926   0.0000   0.0000   0.0000   0.3400
   7.300   1.4680   0.01221   0.00680  -0.1484  0.4307  1.0000  -2.1163   0.0000   0.0000   0.0000   0.3389
   7.400   1.4755   0.01238   0.00695  -0.1478  0.4253  1.0000  -2.1421   0.0000   0.0000   0.0000   0.3379
   7.500   1.4834   0.01254   0.00710  -0.1473  0.4194  1.0000  -2.1722   0.0000   0.0000   0.0000   0.3369
   7.600   1.4906   0.01271   0.00725  -0.1467  0.4140  1.0000  -2.2015   0.0000   0.0000   0.0000   0.3358
   7.700   1.4976   0.01288   0.00741  -0.1460  0.4082  1.0000  -2.2304   0.0000   0.0000   0.0000   0.3347
   7.800   1.5043   0.01306   0.00757  -0.1453  0.4029  1.0000  -2.2590   0.0000   0.0000   0.0000   0.3337
   7.900   1.5111   0.01324   0.00774  -0.1447  0.3973  1.0000  -2.2878   0.0000   0.0000   0.0000   0.3326
   8.000   1.5177   0.01343   0.00792  -0.1440  0.3921  1.0000  -2.3165   0.0000   0.0000   0.0000   0.3316
   8.100   1.5243   0.01362   0.00810  -0.1433  0.3865  1.0000  -2.3452   0.0000   0.0000   0.0000   0.3306
   8.200   1.5306   0.01383   0.00829  -0.1425  0.3814  1.0000  -2.3736   0.0000   0.0000   0.0000   0.3295
   8.300   1.5369   0.01404   0.00849  -0.1418  0.3761  1.0000  -2.4020   0.0000   0.0000   0.0000   0.3285
   8.400   1.5430   0.01426   0.00870  -0.1411  0.3713  1.0000  -2.4302   0.0000   0.0000   0.0000   0.3275
   8.500   1.5493   0.01448   0.00891  -0.1404  0.3661  1.0000  -2.4588   0.0000   0.0000   0.0000   0.3265
   8.600   1.5550   0.01472   0.00913  -0.1396  0.3613  1.0000  -2.4865   0.0000   0.0000   0.0000   0.3255
   8.700   1.5613   0.01495   0.00935  -0.1389  0.3558  1.0000  -2.5152   0.0000   0.0000   0.0000   0.3245
   8.800   1.5667   0.01521   0.00961  -0.1381  0.3507  1.0000  -2.5425   0.0000   0.0000   0.0000   0.3235
   8.900   1.5724   0.01547   0.00985  -0.1373  0.3450  1.0000  -2.5705   0.0000   0.0000   0.0000   0.3226
   9.000   1.5776   0.01575   0.01012  -0.1365  0.3396  1.0000  -2.5976   0.0000   0.0000   0.0000   0.3216
   9.100   1.5828   0.01604   0.01039  -0.1357  0.3337  1.0000  -2.6312   0.0000   0.0000   0.0000   0.3207
   9.200   1.5879   0.01634   0.01068  -0.1349  0.3280  1.0000  -2.6701   0.0000   0.0000   0.0000   0.3197
   9.300   1.5923   0.01668   0.01100  -0.1341  0.3224  1.0000  -2.7079   0.0000   0.0000   0.0000   0.3188
   9.400   1.5976   0.01699   0.01130  -0.1333  0.3167  1.0000  -2.7499   0.0000   0.0000   0.0000   0.3178
   9.600   1.6070   0.01768   0.01196  -0.1318  0.3058  1.0000  -2.8430   0.0000   0.0000   0.0000   0.3160
   9.700   1.6108   0.01808   0.01233  -0.1309  0.3007  1.0000  -2.8933   0.0000   0.0000   0.0000   0.3151
   9.800   1.6162   0.01840   0.01267  -0.1302  0.2952  1.0000  -2.9486   0.0000   0.0000   0.0000   0.3142
   9.900   1.6202   0.01881   0.01305  -0.1294  0.2902  1.0000  -3.0000   0.0000   0.0000   0.0000   0.3134
  10.000   1.6252   0.01917   0.01341  -0.1287  0.2846  1.0000  -3.0550   0.0000   0.0000   0.0000   0.3125
  10.100   1.6293   0.01958   0.01380  -0.1280  0.2796  1.0000  -3.1073   0.0000   0.0000   0.0000   0.3116
  10.200   1.6338   0.01998   0.01419  -0.1272  0.2742  1.0000  -3.1611   0.0000   0.0000   0.0000   0.3108
  10.300   1.6379   0.02041   0.01461  -0.1265  0.2693  1.0000  -3.2138   0.0000   0.0000   0.0000   0.3100
  10.400   1.6420   0.02084   0.01504  -0.1258  0.2643  1.0000  -3.2667   0.0000   0.0000   0.0000   0.3091
  10.500   1.6459   0.02129   0.01548  -0.1250  0.2596  1.0000  -3.3195   0.0000   0.0000   0.0000   0.3083
  10.600   1.6497   0.02176   0.01593  -0.1243  0.2545  1.0000  -3.3720   0.0000   0.0000   0.0000   0.3075
  10.700   1.6534   0.02223   0.01640  -0.1235  0.2496  1.0000  -3.4246   0.0000   0.0000   0.0000   0.3067
  10.800   1.6565   0.02275   0.01690  -0.1228  0.2443  1.0000  -3.4751   0.0000   0.0000   0.0000   0.3059
  10.900   1.6602   0.02324   0.01738  -0.1220  0.2390  1.0000  -3.5282   0.0000   0.0000   0.0000   0.3051
  11.100   1.6665   0.02431   0.01842  -0.1205  0.2281  1.0000  -3.6309   0.0000   0.0000   0.0000   0.3035
  11.200   1.6692   0.02488   0.01898  -0.1198  0.2228  1.0000  -3.6811   0.0000   0.0000   0.0000   0.3028
  11.300   1.6719   0.02546   0.01953  -0.1190  0.2172  1.0000  -3.7317   0.0000   0.0000   0.0000   0.3020
  11.400   1.6748   0.02602   0.02009  -0.1183  0.2120  1.0000  -3.7830   0.0000   0.0000   0.0000   0.3012
  11.600   1.6800   0.02722   0.02126  -0.1168  0.2018  1.0000  -3.8837   0.0000   0.0000   0.0000   0.2997
  11.700   1.6819   0.02787   0.02189  -0.1160  0.1972  1.0000  -3.9319   0.0000   0.0000   0.0000   0.2990
  11.800   1.6847   0.02846   0.02248  -0.1153  0.1923  1.0000  -3.9838   0.0000   0.0000   0.0000   0.2983
  11.900   1.6868   0.02912   0.02312  -0.1146  0.1879  1.0000  -4.0330   0.0000   0.0000   0.0000   0.2976
  12.000   1.6892   0.02975   0.02375  -0.1139  0.1832  1.0000  -4.0837   0.0000   0.0000   0.0000   0.2968
  12.100   1.6914   0.03040   0.02440  -0.1132  0.1788  1.0000  -4.1337   0.0000   0.0000   0.0000   0.2961
  12.200   1.6934   0.03107   0.02506  -0.1125  0.1742  1.0000  -4.1830   0.0000   0.0000   0.0000   0.2954
  12.300   1.6956   0.03173   0.02571  -0.1118  0.1697  1.0000  -4.2334   0.0000   0.0000   0.0000   0.2947
  12.400   1.6970   0.03245   0.02642  -0.1111  0.1653  1.0000  -4.2809   0.0000   0.0000   0.0000   0.2940
  12.500   1.6992   0.03312   0.02709  -0.1104  0.1609  1.0000  -4.3316   0.0000   0.0000   0.0000   0.2934
  12.700   1.7023   0.03459   0.02854  -0.1090  0.1526  1.0000  -4.4283   0.0000   0.0000   0.0000   0.2920
  12.900   1.7049   0.03612   0.03006  -0.1077  0.1448  1.0000  -4.5238   0.0000   0.0000   0.0000   0.2907
  13.100   1.7074   0.03769   0.03163  -0.1064  0.1374  1.0000  -4.6193   0.0000   0.0000   0.0000   0.2894
  13.300   1.7097   0.03930   0.03325  -0.1051  0.1301  1.0000  -4.7142   0.0000   0.0000   0.0000   0.2882
  13.400   1.7101   0.04020   0.03413  -0.1044  0.1267  1.0000  -4.7586   0.0000   0.0000   0.0000   0.2875
  13.500   1.7116   0.04099   0.03493  -0.1039  0.1232  1.0000  -4.8082   0.0000   0.0000   0.0000   0.2869
  13.600   1.7120   0.04190   0.03583  -0.1033  0.1199  1.0000  -4.8529   0.0000   0.0000   0.0000   0.2864
  13.700   1.7133   0.04274   0.03667  -0.1027  0.1165  1.0000  -4.9017   0.0000   0.0000   0.0000   0.2858
  13.800   1.7136   0.04367   0.03760  -0.1021  0.1133  1.0000  -4.9462   0.0000   0.0000   0.0000   0.2852
  13.900   1.7146   0.04456   0.03849  -0.1016  0.1101  1.0000  -4.9936   0.0000   0.0000   0.0000   0.2846
  14.000   1.7148   0.04552   0.03945  -0.1010  0.1070  1.0000  -5.0380   0.0000   0.0000   0.0000   0.2841
  14.100   1.7154   0.04645   0.04039  -0.1005  0.1041  1.0000  -5.0839   0.0000   0.0000   0.0000   0.2835
  14.200   1.7158   0.04740   0.04135  -0.1000  0.1011  1.0000  -5.1292   0.0000   0.0000   0.0000   0.2830
  14.300   1.7157   0.04841   0.04236  -0.0995  0.0985  1.0000  -5.1725   0.0000   0.0000   0.0000   0.2825
  14.400   1.7166   0.04934   0.04330  -0.0990  0.0956  1.0000  -5.2198   0.0000   0.0000   0.0000   0.2819
  14.500   1.7161   0.05041   0.04437  -0.0985  0.0931  1.0000  -5.2613   0.0000   0.0000   0.0000   0.2814
  14.600   1.7171   0.05135   0.04532  -0.0981  0.0905  1.0000  -5.3094   0.0000   0.0000   0.0000   0.2809
  14.700   1.7170   0.05240   0.04638  -0.0976  0.0880  1.0000  -5.3531   0.0000   0.0000   0.0000   0.2804
  14.800   1.7171   0.05345   0.04744  -0.0972  0.0858  1.0000  -5.3970   0.0000   0.0000   0.0000   0.2800
  14.900   1.7177   0.05444   0.04845  -0.0968  0.0834  1.0000  -5.4437   0.0000   0.0000   0.0000   0.2795
  15.000   1.7172   0.05556   0.04958  -0.0964  0.0812  1.0000  -5.4855   0.0000   0.0000   0.0000   0.2790
  15.100   1.7175   0.05662   0.05064  -0.0960  0.0792  1.0000  -5.5308   0.0000   0.0000   0.0000   0.2786
  15.200   1.7176   0.05769   0.05174  -0.0956  0.0771  1.0000  -5.5752   0.0000   0.0000   0.0000   0.2781
  15.300   1.7166   0.05890   0.05295  -0.0953  0.0753  1.0000  -5.6144   0.0000   0.0000   0.0000   0.2777
  15.400   1.7169   0.05996   0.05403  -0.0949  0.0734  1.0000  -5.6596   0.0000   0.0000   0.0000   0.2773
  15.500   1.7168   0.06107   0.05516  -0.0946  0.0715  1.0000  -5.7032   0.0000   0.0000   0.0000   0.2768
  15.600   1.7155   0.06234   0.05643  -0.0943  0.0698  1.0000  -5.7409   0.0000   0.0000   0.0000   0.2764
  15.700   1.7154   0.06346   0.05758  -0.0940  0.0681  1.0000  -5.7847   0.0000   0.0000   0.0000   0.2760
  15.800   1.7151   0.06463   0.05877  -0.0937  0.0663  1.0000  -5.8271   0.0000   0.0000   0.0000   0.2756
  15.900   1.7138   0.06592   0.06007  -0.0934  0.0647  1.0000  -5.8647   0.0000   0.0000   0.0000   0.2753
  16.000   1.7129   0.06717   0.06135  -0.0931  0.0632  1.0000  -5.9045   0.0000   0.0000   0.0000   0.2749
  16.100   1.7129   0.06833   0.06254  -0.0929  0.0615  1.0000  -5.9482   0.0000   0.0000   0.0000   0.2745
  16.200   1.7118   0.06963   0.06385  -0.0927  0.0600  1.0000  -5.9868   0.0000   0.0000   0.0000   0.2742
  16.300   1.7098   0.07104   0.06528  -0.0925  0.0586  1.0000  -6.0209   0.0000   0.0000   0.0000   0.2739
  16.400   1.7099   0.07222   0.06648  -0.0923  0.0571  1.0000  -6.0651   0.0000   0.0000   0.0000   0.2736
  16.500   1.7087   0.07355   0.06783  -0.0921  0.0556  1.0000  -6.1032   0.0000   0.0000   0.0000   0.2732
  16.600   1.7067   0.07498   0.06929  -0.0920  0.0543  1.0000  -6.1370   0.0000   0.0000   0.0000   0.2730
  16.700   1.7055   0.07634   0.07067  -0.0918  0.0530  1.0000  -6.1747   0.0000   0.0000   0.0000   0.2727
  16.800   1.7048   0.07761   0.07197  -0.0917  0.0515  1.0000  -6.2150   0.0000   0.0000   0.0000   0.2724
  16.900   1.7030   0.07905   0.07342  -0.0916  0.0502  1.0000  -6.2493   0.0000   0.0000   0.0000   0.2721
  17.100   1.6994   0.08192   0.07635  -0.0914  0.0478  1.0000  -6.3178   0.0000   0.0000   0.0000   0.2716
  17.200   1.6977   0.08336   0.07782  -0.0913  0.0465  1.0000  -6.3527   0.0000   0.0000   0.0000   0.2714
  17.300   1.6952   0.08492   0.07939  -0.0913  0.0454  1.0000  -6.3831   0.0000   0.0000   0.0000   0.2712
  17.400   1.6921   0.08657   0.08106  -0.0913  0.0444  1.0000  -6.4103   0.0000   0.0000   0.0000   0.2711
  17.500   1.6909   0.08798   0.08251  -0.0913  0.0432  1.0000  -6.4467   0.0000   0.0000   0.0000   0.2709
  17.600   1.6887   0.08953   0.08408  -0.0913  0.0421  1.0000  -6.4779   0.0000   0.0000   0.0000   0.2707
  17.700   1.6858   0.09118   0.08576  -0.0914  0.0411  1.0000  -6.5053   0.0000   0.0000   0.0000   0.2706
  17.800   1.6819   0.09298   0.08758  -0.0915  0.0403  1.0000  -6.5270   0.0000   0.0000   0.0000   0.2705
  17.900   1.6804   0.09447   0.08910  -0.0915  0.0392  1.0000  -6.5610   0.0000   0.0000   0.0000   0.2703
  18.000   1.6780   0.09606   0.09073  -0.0916  0.0383  1.0000  -6.5907   0.0000   0.0000   0.0000   0.2702
  18.100   1.6751   0.09775   0.09244  -0.0918  0.0374  1.0000  -6.6169   0.0000   0.0000   0.0000   0.2701
  18.200   1.6712   0.09957   0.09429  -0.0920  0.0366  1.0000  -6.6378   0.0000   0.0000   0.0000   0.2701
  18.300   1.6673   0.10140   0.09614  -0.0922  0.0359  1.0000  -6.6580   0.0000   0.0000   0.0000   0.2701
  18.400   1.6657   0.10291   0.09770  -0.0923  0.0350  1.0000  -6.6904   0.0000   0.0000   0.0000   0.2700
  18.500   1.6632   0.10456   0.09938  -0.0925  0.0341  1.0000  -6.7218   0.0000   0.0000   0.0000   0.2700
  18.600   1.6599   0.10633   0.10118  -0.0928  0.0333  1.0000  -6.7513   0.0000   0.0000   0.0000   0.2700
  18.700   1.6560   0.10820   0.10307  -0.0931  0.0327  1.0000  -6.7767   0.0000   0.0000   0.0000   0.2700
  18.800   1.6512   0.11020   0.10510  -0.0934  0.0321  1.0000  -6.7963   0.0000   0.0000   0.0000   0.2701
  18.900   1.6498   0.11173   0.10668  -0.0937  0.0313  1.0000  -6.8363   0.0000   0.0000   0.0000   0.2701
  19.000   1.6473   0.11342   0.10840  -0.0940  0.0306  1.0000  -6.8702   0.0000   0.0000   0.0000   0.2701
  19.100   1.6443   0.11519   0.11021  -0.0943  0.0299  1.0000  -6.9001   0.0000   0.0000   0.0000   0.2702
  19.200   1.6408   0.11706   0.11210  -0.0948  0.0293  1.0000  -6.9260   0.0000   0.0000   0.0000   0.2703
  19.300   1.6366   0.11903   0.11409  -0.0952  0.0288  1.0000  -6.9477   0.0000   0.0000   0.0000   0.2705
  19.400   1.6323   0.12104   0.11613  -0.0957  0.0283  1.0000  -6.9671   0.0000   0.0000   0.0000   0.2707
  19.500   1.6308   0.12262   0.11776  -0.0961  0.0277  1.0000  -7.0050   0.0000   0.0000   0.0000   0.2707
  19.600   1.6284   0.12434   0.11951  -0.0966  0.0271  1.0000  -7.0370   0.0000   0.0000   0.0000   0.2708
  19.700   1.6256   0.12613   0.12134  -0.0971  0.0265  1.0000  -7.0662   0.0000   0.0000   0.0000   0.2709
  19.800   1.6222   0.12801   0.12325  -0.0976  0.0260  1.0000  -7.0912   0.0000   0.0000   0.0000   0.2711
  19.900   1.6185   0.12996   0.12523  -0.0982  0.0256  1.0000  -7.1130   0.0000   0.0000   0.0000   0.2714
  20.000   1.6140   0.13201   0.12731  -0.0989  0.0252  1.0000  -7.1290   0.0000   0.0000   0.0000   0.2717


