xflr5 v6.57

 Calculated polar for: rev_root_140

 1 1 Reynolds number fixed          Mach number fixed         

 xtrf =   1.000 (top)        1.000 (bottom)
 Mach =   0.000     Re =     0.320 e 6     Ncrit =   9.000

  alpha     CL        CD       CDp       Cm    Top Xtr Bot Xtr   Cpmin    Chinge    XCp    
 ------- -------- --------- --------- -------- ------- ------- -------- --------- ---------
 -10.000  -0.1121   0.09636   0.09318  -0.0884  0.8993  0.0441  -1.7199   0.0000   0.0000   0.0000  -0.6023
  -9.900  -0.1363   0.09036   0.08720  -0.0961  0.8946  0.0459  -2.1205   0.0000   0.0000   0.0000  -0.5082
  -9.800  -0.1294   0.08989   0.08671  -0.0949  0.8926  0.0460  -2.0411   0.0000   0.0000   0.0000  -0.5389
  -9.700  -0.1222   0.08952   0.08633  -0.0941  0.8901  0.0462  -1.9650   0.0000   0.0000   0.0000  -0.5767
  -9.600  -0.1157   0.08911   0.08591  -0.0934  0.8878  0.0465  -1.8982   0.0000   0.0000   0.0000  -0.6171
  -9.500  -0.1098   0.08861   0.08539  -0.0929  0.8858  0.0468  -1.8437   0.0000   0.0000   0.0000  -0.6585
  -9.400  -0.1046   0.08794   0.08471  -0.0929  0.8832  0.0472  -1.8030   0.0000   0.0000   0.0000  -0.7020
  -9.300  -0.1005   0.08709   0.08385  -0.0931  0.8807  0.0477  -1.7771   0.0000   0.0000   0.0000  -0.7420
  -9.200  -0.0975   0.08606   0.08280  -0.0935  0.8785  0.0484  -1.7656   0.0000   0.0000   0.0000  -0.7763
  -9.100  -0.0955   0.08477   0.08151  -0.0942  0.8762  0.0492  -1.7710   0.0000   0.0000   0.0000  -0.8044
  -8.900  -0.2128   0.04459   0.04100  -0.1372  0.8636  0.0358  -3.8070   0.0000   0.0000   0.0000  -0.4282
  -8.800  -0.2083   0.04324   0.03961  -0.1383  0.8617  0.0356  -3.7858   0.0000   0.0000   0.0000  -0.4478
  -8.700  -0.2051   0.04150   0.03780  -0.1401  0.8594  0.0354  -3.7871   0.0000   0.0000   0.0000  -0.4668
  -8.600  -0.2031   0.03932   0.03551  -0.1423  0.8568  0.0352  -3.8123   0.0000   0.0000   0.0000  -0.4847
  -8.500  -0.2020   0.03661   0.03260  -0.1449  0.8545  0.0348  -3.8671   0.0000   0.0000   0.0000  -0.5012
  -8.400  -0.2011   0.03344   0.02912  -0.1476  0.8526  0.0344  -3.9492   0.0000   0.0000   0.0000  -0.5178
  -8.300  -0.1978   0.03089   0.02629  -0.1493  0.8501  0.0341  -4.0013   0.0000   0.0000   0.0000  -0.5393
  -8.200  -0.1919   0.02899   0.02413  -0.1505  0.8480  0.0341  -4.0164   0.0000   0.0000   0.0000  -0.5688
  -8.100  -0.1846   0.02748   0.02239  -0.1513  0.8463  0.0342  -4.0078   0.0000   0.0000   0.0000  -0.6055
  -8.000  -0.1762   0.02625   0.02095  -0.1519  0.8448  0.0343  -3.9834   0.0000   0.0000   0.0000  -0.6493
  -7.900  -0.1671   0.02525   0.01975  -0.1523  0.8434  0.0347  -3.9532   0.0000   0.0000   0.0000  -0.7006
  -7.800  -0.1581   0.02439   0.01870  -0.1527  0.8412  0.0351  -3.9227   0.0000   0.0000   0.0000  -0.7565
  -7.700  -0.1485   0.02362   0.01772  -0.1530  0.8394  0.0355  -3.8882   0.0000   0.0000   0.0000  -0.8233
  -7.600  -0.1383   0.02298   0.01688  -0.1533  0.8378  0.0358  -3.8475   0.0000   0.0000   0.0000  -0.9035
  -7.500  -0.1281   0.02230   0.01603  -0.1536  0.8364  0.0361  -3.8019   0.0000   0.0000   0.0000  -0.9967
  -7.400  -0.1181   0.02155   0.01522  -0.1537  0.8353  0.0364  -3.7445   0.0000   0.0000   0.0000  -1.1035
  -7.300  -0.1080   0.02106   0.01471  -0.1538  0.8336  0.0367  -3.6803   0.0000   0.0000   0.0000  -1.2296
  -7.200  -0.0978   0.02065   0.01427  -0.1539  0.8317  0.0370  -3.6148   0.0000   0.0000   0.0000  -1.3838
  -7.100  -0.0873   0.02027   0.01385  -0.1540  0.8301  0.0373  -3.5487   0.0000   0.0000   0.0000  -1.5807
  -7.000  -0.0766   0.01991   0.01345  -0.1541  0.8287  0.0377  -3.4816   0.0000   0.0000   0.0000  -1.8375
  -6.900  -0.0657   0.01955   0.01303  -0.1542  0.8274  0.0381  -3.4159   0.0000   0.0000   0.0000  -2.1841
  -6.800  -0.0546   0.01918   0.01260  -0.1543  0.8262  0.0385  -3.3591   0.0000   0.0000   0.0000  -2.6773
  -6.700  -0.0440   0.01884   0.01219  -0.1543  0.8245  0.0389  -3.3059   0.0000   0.0000   0.0000  -3.3796
  -6.600  -0.0334   0.01851   0.01179  -0.1544  0.8226  0.0394  -3.2529   0.0000   0.0000   0.0000  -4.5257
  -6.500  -0.0225   0.01821   0.01141  -0.1544  0.8209  0.0400  -3.1986   0.0000   0.0000   0.0000  -6.8425
  -6.400  -0.0113   0.01797   0.01104  -0.1545  0.8194  0.0406  -3.1436   0.0000   0.0000   0.0000  -13.9293
  -6.300  -0.0003   0.01756   0.01059  -0.1546  0.8181  0.0411  -3.0885   0.0000   0.0000   0.0000  -490.5483
  -6.200   0.0106   0.01721   0.01026  -0.1547  0.8170  0.0417  -3.0245   0.0000   0.0000   0.0000  15.2606
  -6.100   0.0212   0.01698   0.01004  -0.1547  0.8153  0.0423  -2.9615   0.0000   0.0000   0.0000   7.7674
  -6.000   0.0319   0.01676   0.00981  -0.1547  0.8135  0.0429  -2.9008   0.0000   0.0000   0.0000   5.2487
  -5.900   0.0429   0.01653   0.00955  -0.1547  0.8119  0.0435  -2.8418   0.0000   0.0000   0.0000   3.9687
  -5.800   0.0540   0.01629   0.00927  -0.1548  0.8104  0.0442  -2.7836   0.0000   0.0000   0.0000   3.1998
  -5.700   0.0654   0.01606   0.00899  -0.1548  0.8091  0.0449  -2.7261   0.0000   0.0000   0.0000   2.6877
  -5.600   0.0769   0.01585   0.00871  -0.1549  0.8080  0.0456  -2.6690   0.0000   0.0000   0.0000   2.3216
  -5.500   0.0878   0.01555   0.00841  -0.1549  0.8066  0.0464  -2.6124   0.0000   0.0000   0.0000   2.0653
  -5.400   0.0982   0.01533   0.00823  -0.1549  0.8046  0.0472  -2.5520   0.0000   0.0000   0.0000   1.8711
  -5.300   0.1092   0.01515   0.00806  -0.1550  0.8029  0.0481  -2.4906   0.0000   0.0000   0.0000   1.7079
  -5.200   0.1204   0.01499   0.00788  -0.1550  0.8014  0.0494  -2.4334   0.0000   0.0000   0.0000   1.5713
  -5.100   0.1320   0.01485   0.00768  -0.1551  0.8001  0.0508  -2.3821   0.0000   0.0000   0.0000   1.4556
  -5.000   0.1434   0.01461   0.00744  -0.1552  0.7989  0.0522  -2.3289   0.0000   0.0000   0.0000   1.3604
  -4.900   0.1550   0.01445   0.00729  -0.1554  0.7979  0.0538  -2.2720   0.0000   0.0000   0.0000   1.2775
  -4.800   0.1657   0.01433   0.00717  -0.1553  0.7960  0.0556  -2.2217   0.0000   0.0000   0.0000   1.2105
  -4.700   0.1767   0.01415   0.00698  -0.1554  0.7942  0.0576  -2.1729   0.0000   0.0000   0.0000   1.1505
  -4.600   0.1879   0.01398   0.00684  -0.1555  0.7927  0.0597  -2.1192   0.0000   0.0000   0.0000   1.0968
  -4.500   0.1995   0.01386   0.00667  -0.1556  0.7913  0.0626  -2.0689   0.0000   0.0000   0.0000   1.0476
  -4.400   0.2110   0.01364   0.00649  -0.1557  0.7900  0.0654  -2.0155   0.0000   0.0000   0.0000   1.0045
  -4.300   0.2228   0.01351   0.00631  -0.1559  0.7889  0.0693  -1.9637   0.0000   0.0000   0.0000   0.9646
  -4.200   0.2340   0.01335   0.00619  -0.1560  0.7874  0.0731  -1.9103   0.0000   0.0000   0.0000   0.9305
  -4.100   0.2449   0.01321   0.00608  -0.1560  0.7855  0.0774  -1.8610   0.0000   0.0000   0.0000   0.9001
  -4.000   0.2562   0.01311   0.00598  -0.1561  0.7838  0.0826  -1.8137   0.0000   0.0000   0.0000   0.8714
  -3.900   0.2677   0.01299   0.00588  -0.1562  0.7822  0.0883  -1.7646   0.0000   0.0000   0.0000   0.8448
  -3.800   0.2793   0.01287   0.00577  -0.1564  0.7809  0.0946  -1.7150   0.0000   0.0000   0.0000   0.8202
  -3.700   0.2911   0.01274   0.00566  -0.1565  0.7796  0.1016  -1.6652   0.0000   0.0000   0.0000   0.7973
  -3.600   0.3030   0.01263   0.00555  -0.1567  0.7785  0.1095  -1.6150   0.0000   0.0000   0.0000   0.7761
  -3.500   0.3137   0.01254   0.00551  -0.1567  0.7764  0.1177  -1.5676   0.0000   0.0000   0.0000   0.7580
  -3.400   0.3249   0.01245   0.00545  -0.1568  0.7745  0.1271  -1.5189   0.0000   0.0000   0.0000   0.7404
  -3.300   0.3364   0.01235   0.00538  -0.1569  0.7728  0.1374  -1.4694   0.0000   0.0000   0.0000   0.7237
  -3.200   0.3480   0.01225   0.00531  -0.1570  0.7714  0.1485  -1.4194   0.0000   0.0000   0.0000   0.7080
  -3.100   0.3598   0.01215   0.00524  -0.1572  0.7701  0.1608  -1.3692   0.0000   0.0000   0.0000   0.6932
  -3.000   0.3718   0.01207   0.00518  -0.1574  0.7690  0.1741  -1.3189   0.0000   0.0000   0.0000   0.6792
  -2.900   0.3827   0.01201   0.00517  -0.1574  0.7671  0.1871  -1.2713   0.0000   0.0000   0.0000   0.6668
  -2.800   0.3937   0.01194   0.00515  -0.1575  0.7651  0.2005  -1.2236   0.0000   0.0000   0.0000   0.6550
  -2.700   0.4052   0.01187   0.00511  -0.1576  0.7634  0.2139  -1.1756   0.0000   0.0000   0.0000   0.6436
  -2.600   0.4168   0.01180   0.00507  -0.1577  0.7620  0.2272  -1.1273   0.0000   0.0000   0.0000   0.6327
  -2.500   0.4286   0.01173   0.00502  -0.1578  0.7606  0.2410  -1.0792   0.0000   0.0000   0.0000   0.6223
  -2.400   0.4405   0.01167   0.00497  -0.1580  0.7595  0.2551  -1.0350   0.0000   0.0000   0.0000   0.6123
  -2.300   0.4519   0.01162   0.00496  -0.1581  0.7579  0.2690  -0.9925   0.0000   0.0000   0.0000   0.6032
  -2.200   0.4628   0.01157   0.00497  -0.1581  0.7558  0.2831  -0.9512   0.0000   0.0000   0.0000   0.5947
  -2.100   0.4741   0.01152   0.00496  -0.1582  0.7540  0.2983  -0.9094   0.0000   0.0000   0.0000   0.5865
  -2.000   0.4857   0.01147   0.00493  -0.1583  0.7524  0.3143  -0.8674   0.0000   0.0000   0.0000   0.5784
  -1.900   0.4974   0.01140   0.00490  -0.1584  0.7510  0.3306  -0.8254   0.0000   0.0000   0.0000   0.5708
  -1.800   0.5094   0.01133   0.00486  -0.1586  0.7497  0.3489  -0.8290   0.0000   0.0000   0.0000   0.5634
  -1.700   0.5210   0.01128   0.00485  -0.1587  0.7482  0.3670  -0.8370   0.0000   0.0000   0.0000   0.5564
  -1.600   0.5317   0.01124   0.00487  -0.1587  0.7459  0.3848  -0.8443   0.0000   0.0000   0.0000   0.5500
  -1.500   0.5429   0.01119   0.00487  -0.1587  0.7439  0.4032  -0.8520   0.0000   0.0000   0.0000   0.5437
  -1.400   0.5545   0.01112   0.00485  -0.1588  0.7421  0.4218  -0.8599   0.0000   0.0000   0.0000   0.5375
  -1.300   0.5662   0.01106   0.00481  -0.1589  0.7406  0.4408  -0.8681   0.0000   0.0000   0.0000   0.5316
  -1.200   0.5782   0.01100   0.00478  -0.1591  0.7393  0.4600  -0.8764   0.0000   0.0000   0.0000   0.5258
  -1.100   0.5892   0.01096   0.00480  -0.1591  0.7373  0.4803  -0.8839   0.0000   0.0000   0.0000   0.5204
  -1.000   0.6000   0.01092   0.00483  -0.1591  0.7350  0.5014  -0.8920   0.0000   0.0000   0.0000   0.5153
  -0.900   0.6112   0.01086   0.00484  -0.1591  0.7331  0.5239  -0.9009   0.0000   0.0000   0.0000   0.5103
  -0.800   0.6226   0.01080   0.00484  -0.1591  0.7315  0.5484  -0.9099   0.0000   0.0000   0.0000   0.5054
  -0.700   0.6342   0.01074   0.00483  -0.1592  0.7301  0.5736  -0.9192   0.0000   0.0000   0.0000   0.5006
  -0.600   0.6459   0.01069   0.00483  -0.1592  0.7288  0.5989  -0.9285   0.0000   0.0000   0.0000   0.4960
  -0.500   0.6562   0.01066   0.00489  -0.1590  0.7266  0.6230  -0.9368   0.0000   0.0000   0.0000   0.4917
  -0.400   0.6667   0.01063   0.00493  -0.1589  0.7244  0.6459  -0.9453   0.0000   0.0000   0.0000   0.4874
  -0.300   0.6776   0.01060   0.00495  -0.1587  0.7225  0.6683  -0.9543   0.0000   0.0000   0.0000   0.4833
  -0.200   0.6886   0.01057   0.00495  -0.1586  0.7208  0.6901  -0.9635   0.0000   0.0000   0.0000   0.4792
  -0.100   0.6997   0.01054   0.00496  -0.1585  0.7194  0.7107  -0.9728   0.0000   0.0000   0.0000   0.4752
   0.000   0.7106   0.01053   0.00497  -0.1584  0.7178  0.7306  -0.9819   0.0000   0.0000   0.0000   0.4713
   0.100   0.7204   0.01053   0.00503  -0.1580  0.7153  0.7490  -0.9903   0.0000   0.0000   0.0000   0.4677
   0.200   0.7305   0.01052   0.00506  -0.1577  0.7131  0.7655  -0.9989   0.0000   0.0000   0.0000   0.4641
   0.300   0.7410   0.01051   0.00506  -0.1575  0.7112  0.7813  -1.0078   0.0000   0.0000   0.0000   0.4605
   0.500   0.7627   0.01047   0.00501  -0.1571  0.7080  0.8092  -1.0263   0.0000   0.0000   0.0000   0.4537
   0.600   0.7716   0.01047   0.00507  -0.1566  0.7052  0.8217  -1.0342   0.0000   0.0000   0.0000   0.4505
   0.700   0.7812   0.01045   0.00508  -0.1561  0.7028  0.8344  -1.0425   0.0000   0.0000   0.0000   0.4473
   0.800   0.7910   0.01043   0.00507  -0.1557  0.7007  0.8473  -1.0515   0.0000   0.0000   0.0000   0.4442
   0.900   0.8008   0.01040   0.00504  -0.1553  0.6990  0.8606  -1.0615   0.0000   0.0000   0.0000   0.4411
   1.000   0.8103   0.01037   0.00501  -0.1548  0.6974  0.8743  -1.0714   0.0000   0.0000   0.0000   0.4380
   1.100   0.8178   0.01036   0.00505  -0.1539  0.6946  0.8892  -1.0797   0.0000   0.0000   0.0000   0.4351
   1.200   0.8255   0.01032   0.00504  -0.1531  0.6922  0.9054  -1.0883   0.0000   0.0000   0.0000   0.4321
   1.300   0.8333   0.01027   0.00500  -0.1522  0.6902  0.9240  -1.0970   0.0000   0.0000   0.0000   0.4292
   1.400   0.8434   0.01020   0.00492  -0.1518  0.6885  0.9482  -1.1073   0.0000   0.0000   0.0000   0.4264
   1.500   0.8589   0.01014   0.00484  -0.1526  0.6867  1.0000  -1.1209   0.0000   0.0000   0.0000   0.4240
   1.600   0.8700   0.01018   0.00489  -0.1527  0.6839  1.0000  -1.1318   0.0000   0.0000   0.0000   0.4217
   1.700   0.8817   0.01021   0.00491  -0.1529  0.6814  1.0000  -1.1432   0.0000   0.0000   0.0000   0.4194
   1.800   0.8939   0.01023   0.00490  -0.1532  0.6793  1.0000  -1.1550   0.0000   0.0000   0.0000   0.4172
   1.900   0.9064   0.01024   0.00487  -0.1535  0.6774  1.0000  -1.1671   0.0000   0.0000   0.0000   0.4150
   2.000   0.9179   0.01028   0.00488  -0.1536  0.6749  1.0000  -1.1784   0.0000   0.0000   0.0000   0.4129
   2.100   0.9289   0.01030   0.00491  -0.1536  0.6718  1.0000  -1.1896   0.0000   0.0000   0.0000   0.4108
   2.200   0.9406   0.01032   0.00490  -0.1538  0.6692  1.0000  -1.2020   0.0000   0.0000   0.0000   0.4088
   2.300   0.9527   0.01033   0.00487  -0.1539  0.6670  1.0000  -1.2161   0.0000   0.0000   0.0000   0.4068
   2.400   0.9639   0.01036   0.00488  -0.1540  0.6643  1.0000  -1.2295   0.0000   0.0000   0.0000   0.4048
   2.500   0.9747   0.01038   0.00492  -0.1540  0.6611  1.0000  -1.2426   0.0000   0.0000   0.0000   0.4029
   2.600   0.9863   0.01040   0.00492  -0.1541  0.6584  1.0000  -1.2562   0.0000   0.0000   0.0000   0.4010
   2.700   0.9982   0.01042   0.00490  -0.1542  0.6563  1.0000  -1.2703   0.0000   0.0000   0.0000   0.3991
   2.800   1.0092   0.01046   0.00493  -0.1542  0.6535  1.0000  -1.2836   0.0000   0.0000   0.0000   0.3973
   2.900   1.0200   0.01049   0.00497  -0.1542  0.6504  1.0000  -1.2968   0.0000   0.0000   0.0000   0.3955
   3.000   1.0314   0.01052   0.00497  -0.1543  0.6478  1.0000  -1.3105   0.0000   0.0000   0.0000   0.3938
   3.100   1.0431   0.01055   0.00497  -0.1544  0.6456  1.0000  -1.3246   0.0000   0.0000   0.0000   0.3921
   3.200   1.0540   0.01059   0.00501  -0.1544  0.6427  1.0000  -1.3379   0.0000   0.0000   0.0000   0.3904
   3.300   1.0647   0.01063   0.00505  -0.1544  0.6394  1.0000  -1.3511   0.0000   0.0000   0.0000   0.3888
   3.400   1.0760   0.01066   0.00506  -0.1544  0.6366  1.0000  -1.3648   0.0000   0.0000   0.0000   0.3871
   3.500   1.0876   0.01069   0.00505  -0.1545  0.6342  1.0000  -1.3790   0.0000   0.0000   0.0000   0.3856
   3.600   1.0978   0.01074   0.00512  -0.1543  0.6304  1.0000  -1.3918   0.0000   0.0000   0.0000   0.3840
   3.700   1.1086   0.01077   0.00515  -0.1543  0.6270  1.0000  -1.4052   0.0000   0.0000   0.0000   0.3824
   3.800   1.1199   0.01081   0.00515  -0.1543  0.6242  1.0000  -1.4196   0.0000   0.0000   0.0000   0.3809
   3.900   1.1303   0.01085   0.00520  -0.1542  0.6205  1.0000  -1.4332   0.0000   0.0000   0.0000   0.3794
   4.000   1.1408   0.01090   0.00525  -0.1541  0.6167  1.0000  -1.4478   0.0000   0.0000   0.0000   0.3779
   4.100   1.1518   0.01094   0.00526  -0.1541  0.6137  1.0000  -1.4634   0.0000   0.0000   0.0000   0.3765
   4.200   1.1623   0.01099   0.00531  -0.1540  0.6101  1.0000  -1.4784   0.0000   0.0000   0.0000   0.3751
   4.300   1.1727   0.01104   0.00537  -0.1539  0.6063  1.0000  -1.4938   0.0000   0.0000   0.0000   0.3737
   4.400   1.1836   0.01109   0.00539  -0.1539  0.6032  1.0000  -1.5098   0.0000   0.0000   0.0000   0.3723
   4.500   1.1941   0.01115   0.00545  -0.1538  0.5997  1.0000  -1.5255   0.0000   0.0000   0.0000   0.3709
   4.600   1.2043   0.01121   0.00551  -0.1537  0.5958  1.0000  -1.5409   0.0000   0.0000   0.0000   0.3696
   4.700   1.2150   0.01127   0.00555  -0.1536  0.5925  1.0000  -1.5572   0.0000   0.0000   0.0000   0.3683
   4.800   1.2254   0.01134   0.00561  -0.1535  0.5890  1.0000  -1.5739   0.0000   0.0000   0.0000   0.3670
   4.900   1.2355   0.01141   0.00569  -0.1534  0.5849  1.0000  -1.5904   0.0000   0.0000   0.0000   0.3657
   5.000   1.2461   0.01147   0.00573  -0.1533  0.5815  1.0000  -1.6073   0.0000   0.0000   0.0000   0.3644
   5.100   1.2562   0.01155   0.00580  -0.1531  0.5777  1.0000  -1.6240   0.0000   0.0000   0.0000   0.3632
   5.200   1.2662   0.01162   0.00588  -0.1530  0.5735  1.0000  -1.6404   0.0000   0.0000   0.0000   0.3619
   5.300   1.2766   0.01170   0.00592  -0.1528  0.5699  1.0000  -1.6585   0.0000   0.0000   0.0000   0.3607
   5.400   1.2863   0.01178   0.00601  -0.1526  0.5653  1.0000  -1.6772   0.0000   0.0000   0.0000   0.3595
   5.500   1.2962   0.01186   0.00608  -0.1524  0.5609  1.0000  -1.6967   0.0000   0.0000   0.0000   0.3583
   5.600   1.3061   0.01194   0.00615  -0.1522  0.5567  1.0000  -1.7163   0.0000   0.0000   0.0000   0.3571
   5.700   1.3156   0.01203   0.00624  -0.1520  0.5519  1.0000  -1.7356   0.0000   0.0000   0.0000   0.3559
   5.800   1.3254   0.01213   0.00631  -0.1518  0.5478  1.0000  -1.7554   0.0000   0.0000   0.0000   0.3547
   5.900   1.3349   0.01222   0.00641  -0.1515  0.5430  1.0000  -1.7747   0.0000   0.0000   0.0000   0.3536
   6.000   1.3444   0.01232   0.00650  -0.1513  0.5386  1.0000  -1.7942   0.0000   0.0000   0.0000   0.3524
   6.100   1.3540   0.01242   0.00659  -0.1510  0.5343  1.0000  -1.8137   0.0000   0.0000   0.0000   0.3513
   6.200   1.3633   0.01252   0.00670  -0.1507  0.5296  1.0000  -1.8363   0.0000   0.0000   0.0000   0.3502
   6.300   1.3727   0.01264   0.00679  -0.1505  0.5254  1.0000  -1.8607   0.0000   0.0000   0.0000   0.3491
   6.400   1.3817   0.01274   0.00691  -0.1501  0.5203  1.0000  -1.8846   0.0000   0.0000   0.0000   0.3480
   6.500   1.3908   0.01287   0.00701  -0.1498  0.5158  1.0000  -1.9087   0.0000   0.0000   0.0000   0.3469
   6.600   1.3997   0.01298   0.00712  -0.1495  0.5108  1.0000  -1.9327   0.0000   0.0000   0.0000   0.3458
   6.700   1.4084   0.01311   0.00724  -0.1491  0.5058  1.0000  -1.9565   0.0000   0.0000   0.0000   0.3447
   6.800   1.4171   0.01324   0.00736  -0.1487  0.5008  1.0000  -1.9803   0.0000   0.0000   0.0000   0.3437
   6.900   1.4255   0.01337   0.00748  -0.1483  0.4955  1.0000  -2.0040   0.0000   0.0000   0.0000   0.3426
   7.000   1.4339   0.01352   0.00761  -0.1479  0.4905  1.0000  -2.0276   0.0000   0.0000   0.0000   0.3415
   7.100   1.4421   0.01365   0.00775  -0.1474  0.4851  1.0000  -2.0511   0.0000   0.0000   0.0000   0.3405
   7.200   1.4503   0.01381   0.00789  -0.1469  0.4803  1.0000  -2.0746   0.0000   0.0000   0.0000   0.3394
   7.300   1.4583   0.01395   0.00803  -0.1465  0.4748  1.0000  -2.0979   0.0000   0.0000   0.0000   0.3384
   7.400   1.4661   0.01412   0.00817  -0.1459  0.4700  1.0000  -2.1212   0.0000   0.0000   0.0000   0.3373
   7.500   1.4740   0.01426   0.00833  -0.1454  0.4645  1.0000  -2.1494   0.0000   0.0000   0.0000   0.3363
   7.700   1.4889   0.01459   0.00865  -0.1443  0.4540  1.0000  -2.2085   0.0000   0.0000   0.0000   0.3342
   7.900   1.5027   0.01495   0.00899  -0.1430  0.4431  1.0000  -2.2663   0.0000   0.0000   0.0000   0.3321
   8.100   1.5147   0.01533   0.00935  -0.1413  0.4322  1.0000  -2.3215   0.0000   0.0000   0.0000   0.3299
   8.300   1.5263   0.01574   0.00974  -0.1397  0.4213  1.0000  -2.3764   0.0000   0.0000   0.0000   0.3278
   8.500   1.5375   0.01619   0.01017  -0.1380  0.4105  1.0000  -2.4309   0.0000   0.0000   0.0000   0.3257
   8.700   1.5482   0.01667   0.01064  -0.1363  0.3999  1.0000  -2.4849   0.0000   0.0000   0.0000   0.3236
   8.800   1.5529   0.01695   0.01089  -0.1353  0.3949  1.0000  -2.5109   0.0000   0.0000   0.0000   0.3226
   8.900   1.5584   0.01719   0.01115  -0.1345  0.3894  1.0000  -2.5383   0.0000   0.0000   0.0000   0.3216
   9.000   1.5628   0.01749   0.01143  -0.1336  0.3844  1.0000  -2.5639   0.0000   0.0000   0.0000   0.3206
   9.100   1.5681   0.01776   0.01170  -0.1328  0.3791  1.0000  -2.5925   0.0000   0.0000   0.0000   0.3196
   9.200   1.5724   0.01808   0.01200  -0.1319  0.3743  1.0000  -2.6255   0.0000   0.0000   0.0000   0.3186
   9.300   1.5775   0.01836   0.01229  -0.1311  0.3691  1.0000  -2.6640   0.0000   0.0000   0.0000   0.3177
   9.400   1.5816   0.01871   0.01262  -0.1302  0.3641  1.0000  -2.7005   0.0000   0.0000   0.0000   0.3167
   9.500   1.5863   0.01902   0.01294  -0.1294  0.3587  1.0000  -2.7397   0.0000   0.0000   0.0000   0.3158
   9.600   1.5901   0.01940   0.01330  -0.1284  0.3535  1.0000  -2.7778   0.0000   0.0000   0.0000   0.3148
   9.700   1.5945   0.01974   0.01365  -0.1276  0.3479  1.0000  -2.8178   0.0000   0.0000   0.0000   0.3139
   9.800   1.5978   0.02016   0.01404  -0.1267  0.3426  1.0000  -2.8550   0.0000   0.0000   0.0000   0.3130
   9.900   1.6021   0.02052   0.01442  -0.1259  0.3368  1.0000  -2.9055   0.0000   0.0000   0.0000   0.3121
  10.100   1.6093   0.02136   0.01525  -0.1242  0.3260  1.0000  -3.0044   0.0000   0.0000   0.0000   0.3103
  10.200   1.6121   0.02184   0.01570  -0.1232  0.3212  1.0000  -3.0517   0.0000   0.0000   0.0000   0.3094
  10.300   1.6164   0.02224   0.01612  -0.1225  0.3157  1.0000  -3.1041   0.0000   0.0000   0.0000   0.3086
  10.400   1.6191   0.02274   0.01660  -0.1216  0.3111  1.0000  -3.1514   0.0000   0.0000   0.0000   0.3077
  10.500   1.6233   0.02316   0.01703  -0.1209  0.3058  1.0000  -3.2041   0.0000   0.0000   0.0000   0.3069
  10.700   1.6299   0.02413   0.01800  -0.1194  0.2959  1.0000  -3.3040   0.0000   0.0000   0.0000   0.3052
  10.800   1.6322   0.02469   0.01853  -0.1185  0.2914  1.0000  -3.3511   0.0000   0.0000   0.0000   0.3044
  10.900   1.6363   0.02514   0.01901  -0.1178  0.2863  1.0000  -3.4044   0.0000   0.0000   0.0000   0.3036
  11.000   1.6386   0.02572   0.01957  -0.1170  0.2817  1.0000  -3.4516   0.0000   0.0000   0.0000   0.3028
  11.100   1.6424   0.02620   0.02007  -0.1163  0.2767  1.0000  -3.5044   0.0000   0.0000   0.0000   0.3021
  11.200   1.6446   0.02680   0.02065  -0.1155  0.2723  1.0000  -3.5514   0.0000   0.0000   0.0000   0.3013
  11.300   1.6480   0.02732   0.02118  -0.1148  0.2675  1.0000  -3.6033   0.0000   0.0000   0.0000   0.3005
  11.400   1.6500   0.02794   0.02179  -0.1140  0.2632  1.0000  -3.6502   0.0000   0.0000   0.0000   0.2997
  11.500   1.6529   0.02850   0.02237  -0.1133  0.2584  1.0000  -3.7008   0.0000   0.0000   0.0000   0.2990
  11.600   1.6546   0.02916   0.02301  -0.1125  0.2537  1.0000  -3.7471   0.0000   0.0000   0.0000   0.2982
  11.700   1.6572   0.02976   0.02362  -0.1118  0.2488  1.0000  -3.7968   0.0000   0.0000   0.0000   0.2975
  11.800   1.6585   0.03046   0.02430  -0.1110  0.2441  1.0000  -3.8419   0.0000   0.0000   0.0000   0.2968
  11.900   1.6609   0.03109   0.02494  -0.1103  0.2390  1.0000  -3.8912   0.0000   0.0000   0.0000   0.2961
  12.000   1.6617   0.03184   0.02567  -0.1095  0.2344  1.0000  -3.9346   0.0000   0.0000   0.0000   0.2953
  12.100   1.6641   0.03247   0.02632  -0.1088  0.2291  1.0000  -3.9844   0.0000   0.0000   0.0000   0.2946
  12.200   1.6645   0.03327   0.02709  -0.1080  0.2245  1.0000  -4.0267   0.0000   0.0000   0.0000   0.2939
  12.300   1.6669   0.03392   0.02777  -0.1074  0.2192  1.0000  -4.0767   0.0000   0.0000   0.0000   0.2933
  12.400   1.6675   0.03472   0.02855  -0.1066  0.2147  1.0000  -4.1199   0.0000   0.0000   0.0000   0.2926
  12.500   1.6692   0.03544   0.02928  -0.1060  0.2097  1.0000  -4.1675   0.0000   0.0000   0.0000   0.2919
  12.600   1.6698   0.03625   0.03008  -0.1053  0.2053  1.0000  -4.2113   0.0000   0.0000   0.0000   0.2912
  12.700   1.6711   0.03702   0.03085  -0.1046  0.2005  1.0000  -4.2574   0.0000   0.0000   0.0000   0.2906
  12.800   1.6718   0.03784   0.03167  -0.1039  0.1961  1.0000  -4.3013   0.0000   0.0000   0.0000   0.2899
  12.900   1.6726   0.03867   0.03250  -0.1033  0.1915  1.0000  -4.3459   0.0000   0.0000   0.0000   0.2893
  13.000   1.6733   0.03951   0.03334  -0.1026  0.1872  1.0000  -4.3902   0.0000   0.0000   0.0000   0.2887
  13.100   1.6738   0.04038   0.03421  -0.1020  0.1827  1.0000  -4.4338   0.0000   0.0000   0.0000   0.2880
  13.200   1.6746   0.04123   0.03507  -0.1014  0.1783  1.0000  -4.4787   0.0000   0.0000   0.0000   0.2874
  13.300   1.6748   0.04216   0.03598  -0.1008  0.1739  1.0000  -4.5212   0.0000   0.0000   0.0000   0.2869
  13.400   1.6758   0.04302   0.03686  -0.1002  0.1695  1.0000  -4.5669   0.0000   0.0000   0.0000   0.2863
  13.500   1.6755   0.04401   0.03784  -0.0996  0.1653  1.0000  -4.6075   0.0000   0.0000   0.0000   0.2857
  13.600   1.6765   0.04490   0.03874  -0.0991  0.1609  1.0000  -4.6532   0.0000   0.0000   0.0000   0.2851
  13.700   1.6757   0.04595   0.03978  -0.0985  0.1570  1.0000  -4.6918   0.0000   0.0000   0.0000   0.2846
  13.800   1.6765   0.04686   0.04070  -0.0980  0.1528  1.0000  -4.7370   0.0000   0.0000   0.0000   0.2840
  13.900   1.6754   0.04795   0.04178  -0.0974  0.1492  1.0000  -4.7746   0.0000   0.0000   0.0000   0.2835
  14.000   1.6760   0.04890   0.04275  -0.0969  0.1452  1.0000  -4.8191   0.0000   0.0000   0.0000   0.2830
  14.100   1.6750   0.05003   0.04386  -0.0964  0.1418  1.0000  -4.8564   0.0000   0.0000   0.0000   0.2825
  14.200   1.6755   0.05100   0.04486  -0.0959  0.1380  1.0000  -4.9008   0.0000   0.0000   0.0000   0.2820
  14.300   1.6746   0.05213   0.04598  -0.0954  0.1345  1.0000  -4.9391   0.0000   0.0000   0.0000   0.2815
  14.400   1.6749   0.05316   0.04703  -0.0950  0.1309  1.0000  -4.9820   0.0000   0.0000   0.0000   0.2810
  14.500   1.6741   0.05431   0.04817  -0.0946  0.1276  1.0000  -5.0208   0.0000   0.0000   0.0000   0.2805
  14.600   1.6738   0.05541   0.04928  -0.0942  0.1244  1.0000  -5.0616   0.0000   0.0000   0.0000   0.2801
  14.700   1.6732   0.05655   0.05043  -0.0938  0.1211  1.0000  -5.1011   0.0000   0.0000   0.0000   0.2796
  14.800   1.6723   0.05774   0.05163  -0.0934  0.1182  1.0000  -5.1391   0.0000   0.0000   0.0000   0.2792
  14.900   1.6720   0.05886   0.05277  -0.0930  0.1150  1.0000  -5.1799   0.0000   0.0000   0.0000   0.2787
  15.100   1.6702   0.06126   0.05520  -0.0923  0.1094  1.0000  -5.2559   0.0000   0.0000   0.0000   0.2779
  15.200   1.6686   0.06256   0.05650  -0.0920  0.1067  1.0000  -5.2908   0.0000   0.0000   0.0000   0.2775
  15.300   1.6677   0.06379   0.05774  -0.0917  0.1041  1.0000  -5.3289   0.0000   0.0000   0.0000   0.2772
  15.400   1.6668   0.06503   0.05900  -0.0914  0.1014  1.0000  -5.3670   0.0000   0.0000   0.0000   0.2768
  15.500   1.6643   0.06647   0.06044  -0.0911  0.0992  1.0000  -5.3972   0.0000   0.0000   0.0000   0.2765
  15.600   1.6645   0.06760   0.06160  -0.0909  0.0964  1.0000  -5.4404   0.0000   0.0000   0.0000   0.2761
  15.700   1.6627   0.06898   0.06299  -0.0906  0.0941  1.0000  -5.4741   0.0000   0.0000   0.0000   0.2758
  15.800   1.6612   0.07034   0.06436  -0.0904  0.0919  1.0000  -5.5087   0.0000   0.0000   0.0000   0.2754
  15.900   1.6605   0.07161   0.06566  -0.0902  0.0894  1.0000  -5.5474   0.0000   0.0000   0.0000   0.2751
  16.000   1.6582   0.07308   0.06714  -0.0900  0.0873  1.0000  -5.5784   0.0000   0.0000   0.0000   0.2749
  16.100   1.6571   0.07441   0.06849  -0.0899  0.0852  1.0000  -5.6149   0.0000   0.0000   0.0000   0.2746
  16.200   1.6560   0.07575   0.06986  -0.0897  0.0829  1.0000  -5.6510   0.0000   0.0000   0.0000   0.2743
  16.300   1.6531   0.07731   0.07142  -0.0896  0.0812  1.0000  -5.6791   0.0000   0.0000   0.0000   0.2740
  16.400   1.6520   0.07866   0.07281  -0.0895  0.0791  1.0000  -5.7149   0.0000   0.0000   0.0000   0.2738
  16.500   1.6504   0.08008   0.07425  -0.0894  0.0772  1.0000  -5.7487   0.0000   0.0000   0.0000   0.2735
  16.600   1.6474   0.08169   0.07587  -0.0893  0.0756  1.0000  -5.7756   0.0000   0.0000   0.0000   0.2733
  16.700   1.6456   0.08317   0.07737  -0.0893  0.0738  1.0000  -5.8076   0.0000   0.0000   0.0000   0.2731
  16.800   1.6442   0.08458   0.07882  -0.0893  0.0720  1.0000  -5.8419   0.0000   0.0000   0.0000   0.2729
  16.900   1.6415   0.08619   0.08045  -0.0893  0.0704  1.0000  -5.8693   0.0000   0.0000   0.0000   0.2728
  17.000   1.6382   0.08789   0.08216  -0.0893  0.0690  1.0000  -5.8938   0.0000   0.0000   0.0000   0.2726
  17.100   1.6373   0.08927   0.08359  -0.0893  0.0672  1.0000  -5.9299   0.0000   0.0000   0.0000   0.2724
  17.200   1.6349   0.09086   0.08520  -0.0894  0.0657  1.0000  -5.9583   0.0000   0.0000   0.0000   0.2723
  17.300   1.6314   0.09262   0.08697  -0.0895  0.0644  1.0000  -5.9808   0.0000   0.0000   0.0000   0.2722
  17.400   1.6292   0.09421   0.08859  -0.0895  0.0630  1.0000  -6.0095   0.0000   0.0000   0.0000   0.2721
  17.500   1.6277   0.09570   0.09013  -0.0896  0.0614  1.0000  -6.0414   0.0000   0.0000   0.0000   0.2720
  17.600   1.6248   0.09739   0.09184  -0.0898  0.0601  1.0000  -6.0664   0.0000   0.0000   0.0000   0.2719
  17.700   1.6207   0.09924   0.09370  -0.0900  0.0590  1.0000  -6.0852   0.0000   0.0000   0.0000   0.2719
  17.800   1.6190   0.10078   0.09528  -0.0901  0.0575  1.0000  -6.1150   0.0000   0.0000   0.0000   0.2718
  17.900   1.6169   0.10237   0.09691  -0.0903  0.0561  1.0000  -6.1431   0.0000   0.0000   0.0000   0.2718
  18.000   1.6136   0.10414   0.09871  -0.0905  0.0550  1.0000  -6.1649   0.0000   0.0000   0.0000   0.2718
  18.100   1.6093   0.10606   0.10063  -0.0908  0.0540  1.0000  -6.1813   0.0000   0.0000   0.0000   0.2719
  18.200   1.6074   0.10768   0.10229  -0.0911  0.0527  1.0000  -6.2086   0.0000   0.0000   0.0000   0.2718
  18.300   1.6054   0.10929   0.10395  -0.0913  0.0513  1.0000  -6.2358   0.0000   0.0000   0.0000   0.2718
  18.400   1.6022   0.11109   0.10577  -0.0917  0.0503  1.0000  -6.2565   0.0000   0.0000   0.0000   0.2719
  18.500   1.5981   0.11303   0.10772  -0.0921  0.0494  1.0000  -6.2723   0.0000   0.0000   0.0000   0.2720
  18.600   1.5954   0.11479   0.10951  -0.0924  0.0483  1.0000  -6.2941   0.0000   0.0000   0.0000   0.2721
  18.700   1.5935   0.11642   0.11119  -0.0928  0.0471  1.0000  -6.3203   0.0000   0.0000   0.0000   0.2721
  18.800   1.5905   0.11822   0.11302  -0.0932  0.0461  1.0000  -6.3445   0.0000   0.0000   0.0000   0.2723
  18.900   1.5868   0.12013   0.11495  -0.0937  0.0452  1.0000  -6.3669   0.0000   0.0000   0.0000   0.2725
  19.000   1.5822   0.12220   0.11702  -0.0943  0.0445  1.0000  -6.3827   0.0000   0.0000   0.0000   0.2727
  19.100   1.5807   0.12380   0.11867  -0.0947  0.0434  1.0000  -6.4171   0.0000   0.0000   0.0000   0.2728
  19.200   1.5784   0.12553   0.12045  -0.0951  0.0424  1.0000  -6.4462   0.0000   0.0000   0.0000   0.2729
  19.300   1.5754   0.12735   0.12230  -0.0957  0.0416  1.0000  -6.4717   0.0000   0.0000   0.0000   0.2731
  19.400   1.5717   0.12931   0.12427  -0.0963  0.0409  1.0000  -6.4912   0.0000   0.0000   0.0000   0.2734
  19.500   1.5673   0.13134   0.12629  -0.0969  0.0402  1.0000  -6.5067   0.0000   0.0000   0.0000   0.2737
  19.600   1.5655   0.13301   0.12802  -0.0975  0.0393  1.0000  -6.5369   0.0000   0.0000   0.0000   0.2739
  19.700   1.5636   0.13471   0.12976  -0.0980  0.0384  1.0000  -6.5664   0.0000   0.0000   0.0000   0.2740
  19.800   1.5611   0.13649   0.13158  -0.0986  0.0377  1.0000  -6.5926   0.0000   0.0000   0.0000   0.2743
  19.900   1.5581   0.13836   0.13346  -0.0993  0.0370  1.0000  -6.6156   0.0000   0.0000   0.0000   0.2746
  20.000   1.5547   0.14030   0.13541  -0.1001  0.0365  1.0000  -6.6350   0.0000   0.0000   0.0000   0.2749


