xflr5 v6.57

 Calculated polar for: rev_root_140

 1 1 Reynolds number fixed          Mach number fixed         

 xtrf =   1.000 (top)        1.000 (bottom)
 Mach =   0.000     Re =     0.900 e 6     Ncrit =   9.000

  alpha     CL        CD       CDp       Cm    Top Xtr Bot Xtr   Cpmin    Chinge    XCp    
 ------- -------- --------- --------- -------- ------- ------- -------- --------- ---------
 -10.000  -0.4113   0.01907   0.01434  -0.1475  0.8083  0.0183  -6.5878   0.0000   0.0000   0.0000  -0.1311
  -9.900  -0.4010   0.01876   0.01398  -0.1477  0.8068  0.0185  -6.4875   0.0000   0.0000   0.0000  -0.1411
  -9.800  -0.3905   0.01846   0.01364  -0.1479  0.8051  0.0187  -6.3865   0.0000   0.0000   0.0000  -0.1517
  -9.700  -0.3800   0.01817   0.01331  -0.1481  0.8034  0.0189  -6.2856   0.0000   0.0000   0.0000  -0.1630
  -9.600  -0.3694   0.01791   0.01299  -0.1483  0.8018  0.0191  -6.1847   0.0000   0.0000   0.0000  -0.1749
  -9.500  -0.3588   0.01766   0.01269  -0.1485  0.8003  0.0192  -6.0840   0.0000   0.0000   0.0000  -0.1876
  -9.400  -0.3480   0.01743   0.01240  -0.1486  0.7990  0.0194  -5.9834   0.0000   0.0000   0.0000  -0.2011
  -9.300  -0.3372   0.01721   0.01213  -0.1488  0.7977  0.0195  -5.8827   0.0000   0.0000   0.0000  -0.2157
  -9.200  -0.3263   0.01700   0.01187  -0.1489  0.7961  0.0197  -5.7822   0.0000   0.0000   0.0000  -0.2313
  -9.100  -0.3154   0.01679   0.01162  -0.1491  0.7945  0.0197  -5.6818   0.0000   0.0000   0.0000  -0.2480
  -9.000  -0.3054   0.01623   0.01099  -0.1493  0.7929  0.0199  -5.6016   0.0000   0.0000   0.0000  -0.2646
  -8.900  -0.2957   0.01559   0.01030  -0.1495  0.7915  0.0202  -5.5243   0.0000   0.0000   0.0000  -0.2819
  -8.800  -0.2852   0.01522   0.00989  -0.1497  0.7901  0.0204  -5.4320   0.0000   0.0000   0.0000  -0.3016
  -8.700  -0.2745   0.01496   0.00959  -0.1498  0.7889  0.0206  -5.3347   0.0000   0.0000   0.0000  -0.3233
  -8.600  -0.2636   0.01473   0.00935  -0.1500  0.7876  0.0208  -5.2356   0.0000   0.0000   0.0000  -0.3472
  -8.500  -0.2525   0.01452   0.00913  -0.1501  0.7861  0.0210  -5.1362   0.0000   0.0000   0.0000  -0.3733
  -8.400  -0.2415   0.01433   0.00892  -0.1503  0.7846  0.0212  -5.0371   0.0000   0.0000   0.0000  -0.4020
  -8.300  -0.2304   0.01414   0.00871  -0.1504  0.7832  0.0214  -4.9442   0.0000   0.0000   0.0000  -0.4335
  -8.200  -0.2192   0.01396   0.00850  -0.1505  0.7818  0.0216  -4.8540   0.0000   0.0000   0.0000  -0.4682
  -8.100  -0.2081   0.01378   0.00829  -0.1506  0.7806  0.0218  -4.7646   0.0000   0.0000   0.0000  -0.5067
  -8.000  -0.1969   0.01361   0.00808  -0.1508  0.7794  0.0220  -4.6761   0.0000   0.0000   0.0000  -0.5496
  -7.900  -0.1857   0.01343   0.00787  -0.1509  0.7783  0.0222  -4.5883   0.0000   0.0000   0.0000  -0.5980
  -7.800  -0.1745   0.01325   0.00767  -0.1510  0.7768  0.0224  -4.5012   0.0000   0.0000   0.0000  -0.6526
  -7.700  -0.1632   0.01308   0.00747  -0.1511  0.7754  0.0226  -4.4146   0.0000   0.0000   0.0000  -0.7149
  -7.600  -0.1520   0.01292   0.00728  -0.1512  0.7739  0.0228  -4.3304   0.0000   0.0000   0.0000  -0.7864
  -7.500  -0.1407   0.01276   0.00710  -0.1513  0.7724  0.0230  -4.2520   0.0000   0.0000   0.0000  -0.8695
  -7.400  -0.1293   0.01263   0.00693  -0.1514  0.7711  0.0232  -4.1730   0.0000   0.0000   0.0000  -0.9676
  -7.300  -0.1179   0.01253   0.00679  -0.1515  0.7698  0.0233  -4.0930   0.0000   0.0000   0.0000  -1.0851
  -7.200  -0.1069   0.01224   0.00646  -0.1517  0.7686  0.0237  -4.0234   0.0000   0.0000   0.0000  -1.2235
  -7.100  -0.0958   0.01196   0.00617  -0.1519  0.7672  0.0241  -3.9507   0.0000   0.0000   0.0000  -1.3949
  -7.000  -0.0845   0.01178   0.00599  -0.1520  0.7657  0.0244  -3.8725   0.0000   0.0000   0.0000  -1.6154
  -6.900  -0.0731   0.01165   0.00585  -0.1521  0.7643  0.0247  -3.7934   0.0000   0.0000   0.0000  -1.9062
  -6.800  -0.0617   0.01152   0.00571  -0.1522  0.7630  0.0250  -3.7150   0.0000   0.0000   0.0000  -2.3053
  -6.700  -0.0503   0.01140   0.00557  -0.1524  0.7617  0.0252  -3.6377   0.0000   0.0000   0.0000  -2.8866
  -6.600  -0.0388   0.01128   0.00543  -0.1525  0.7605  0.0255  -3.5613   0.0000   0.0000   0.0000  -3.8119
  -6.500  -0.0273   0.01117   0.00529  -0.1526  0.7593  0.0259  -3.4856   0.0000   0.0000   0.0000  -5.5176
  -6.400  -0.0159   0.01106   0.00516  -0.1527  0.7580  0.0262  -3.4106   0.0000   0.0000   0.0000  -9.7000
  -6.300  -0.0044   0.01094   0.00503  -0.1528  0.7566  0.0265  -3.3362   0.0000   0.0000   0.0000  -36.0102
  -6.200   0.0072   0.01084   0.00491  -0.1529  0.7553  0.0268  -3.2622   0.0000   0.0000   0.0000  22.2339
  -6.100   0.0187   0.01074   0.00479  -0.1530  0.7539  0.0271  -3.1884   0.0000   0.0000   0.0000   8.6756
  -6.000   0.0303   0.01065   0.00468  -0.1531  0.7527  0.0273  -3.1148   0.0000   0.0000   0.0000   5.4583
  -5.900   0.0417   0.01045   0.00446  -0.1533  0.7515  0.0278  -3.0464   0.0000   0.0000   0.0000   4.0324
  -5.800   0.0532   0.01031   0.00431  -0.1534  0.7504  0.0283  -2.9741   0.0000   0.0000   0.0000   3.2152
  -5.700   0.0648   0.01023   0.00421  -0.1535  0.7493  0.0289  -2.9004   0.0000   0.0000   0.0000   2.6862
  -5.600   0.0764   0.01014   0.00412  -0.1536  0.7480  0.0294  -2.8273   0.0000   0.0000   0.0000   2.3172
  -5.500   0.0880   0.01006   0.00403  -0.1537  0.7466  0.0300  -2.7555   0.0000   0.0000   0.0000   2.0454
  -5.400   0.0996   0.00997   0.00394  -0.1538  0.7452  0.0305  -2.6878   0.0000   0.0000   0.0000   1.8364
  -5.300   0.1112   0.00989   0.00384  -0.1539  0.7439  0.0311  -2.6249   0.0000   0.0000   0.0000   1.6708
  -5.200   0.1228   0.00982   0.00375  -0.1540  0.7426  0.0315  -2.5622   0.0000   0.0000   0.0000   1.5363
  -5.100   0.1344   0.00966   0.00359  -0.1542  0.7413  0.0325  -2.5026   0.0000   0.0000   0.0000   1.4260
  -5.000   0.1460   0.00957   0.00349  -0.1543  0.7401  0.0334  -2.4399   0.0000   0.0000   0.0000   1.3327
  -4.900   0.1576   0.00951   0.00340  -0.1544  0.7389  0.0344  -2.3776   0.0000   0.0000   0.0000   1.2529
  -4.800   0.1692   0.00944   0.00333  -0.1545  0.7375  0.0355  -2.3166   0.0000   0.0000   0.0000   1.1841
  -4.700   0.1808   0.00933   0.00321  -0.1546  0.7360  0.0369  -2.2574   0.0000   0.0000   0.0000   1.1243
  -4.600   0.1924   0.00923   0.00313  -0.1547  0.7345  0.0387  -2.1968   0.0000   0.0000   0.0000   1.0717
  -4.500   0.2041   0.00916   0.00305  -0.1548  0.7330  0.0406  -2.1369   0.0000   0.0000   0.0000   1.0249
  -4.400   0.2157   0.00905   0.00295  -0.1549  0.7316  0.0432  -2.0778   0.0000   0.0000   0.0000   0.9834
  -4.200   0.2390   0.00891   0.00280  -0.1552  0.7291  0.0494  -1.9619   0.0000   0.0000   0.0000   0.9122
  -4.100   0.2506   0.00885   0.00275  -0.1553  0.7278  0.0529  -1.9078   0.0000   0.0000   0.0000   0.8815
  -4.000   0.2622   0.00879   0.00270  -0.1554  0.7264  0.0566  -1.8536   0.0000   0.0000   0.0000   0.8536
  -3.900   0.2739   0.00871   0.00264  -0.1555  0.7249  0.0605  -1.7995   0.0000   0.0000   0.0000   0.8281
  -3.800   0.2855   0.00865   0.00259  -0.1556  0.7235  0.0644  -1.7457   0.0000   0.0000   0.0000   0.8046
  -3.700   0.2972   0.00859   0.00254  -0.1557  0.7222  0.0685  -1.6921   0.0000   0.0000   0.0000   0.7829
  -3.600   0.3088   0.00852   0.00248  -0.1559  0.7209  0.0731  -1.6388   0.0000   0.0000   0.0000   0.7629
  -3.500   0.3204   0.00847   0.00243  -0.1560  0.7197  0.0780  -1.5858   0.0000   0.0000   0.0000   0.7444
  -3.400   0.3321   0.00842   0.00239  -0.1561  0.7185  0.0836  -1.5330   0.0000   0.0000   0.0000   0.7271
  -3.300   0.3438   0.00836   0.00235  -0.1562  0.7171  0.0899  -1.4807   0.0000   0.0000   0.0000   0.7110
  -3.100   0.3670   0.00824   0.00228  -0.1564  0.7140  0.1035  -1.3773   0.0000   0.0000   0.0000   0.6819
  -3.000   0.3786   0.00818   0.00224  -0.1566  0.7124  0.1108  -1.3263   0.0000   0.0000   0.0000   0.6687
  -2.900   0.3902   0.00812   0.00221  -0.1567  0.7109  0.1188  -1.2757   0.0000   0.0000   0.0000   0.6563
  -2.800   0.4019   0.00808   0.00217  -0.1568  0.7095  0.1274  -1.2256   0.0000   0.0000   0.0000   0.6446
  -2.700   0.4135   0.00805   0.00214  -0.1569  0.7081  0.1363  -1.1758   0.0000   0.0000   0.0000   0.6336
  -2.600   0.4251   0.00799   0.00212  -0.1570  0.7065  0.1455  -1.1266   0.0000   0.0000   0.0000   0.6231
  -2.400   0.4483   0.00787   0.00208  -0.1573  0.7031  0.1648  -1.0320   0.0000   0.0000   0.0000   0.6039
  -2.300   0.4600   0.00782   0.00206  -0.1574  0.7016  0.1757  -0.9882   0.0000   0.0000   0.0000   0.5950
  -2.200   0.4716   0.00778   0.00203  -0.1575  0.7002  0.1870  -0.9448   0.0000   0.0000   0.0000   0.5865
  -2.100   0.4832   0.00774   0.00201  -0.1576  0.6988  0.1983  -0.9018   0.0000   0.0000   0.0000   0.5785
  -2.000   0.4949   0.00771   0.00200  -0.1577  0.6975  0.2101  -0.8592   0.0000   0.0000   0.0000   0.5708
  -1.900   0.5065   0.00765   0.00199  -0.1579  0.6959  0.2227  -0.8330   0.0000   0.0000   0.0000   0.5635
  -1.800   0.5181   0.00760   0.00198  -0.1580  0.6942  0.2354  -0.8410   0.0000   0.0000   0.0000   0.5565
  -1.700   0.5297   0.00756   0.00197  -0.1581  0.6925  0.2469  -0.8490   0.0000   0.0000   0.0000   0.5498
  -1.500   0.5530   0.00749   0.00194  -0.1583  0.6893  0.2688  -0.8650   0.0000   0.0000   0.0000   0.5372
  -1.400   0.5646   0.00746   0.00193  -0.1584  0.6879  0.2817  -0.8730   0.0000   0.0000   0.0000   0.5313
  -1.300   0.5762   0.00742   0.00193  -0.1586  0.6864  0.2954  -0.8810   0.0000   0.0000   0.0000   0.5257
  -1.200   0.5878   0.00738   0.00193  -0.1587  0.6845  0.3084  -0.8890   0.0000   0.0000   0.0000   0.5202
  -1.100   0.5994   0.00734   0.00192  -0.1588  0.6827  0.3217  -0.8971   0.0000   0.0000   0.0000   0.5150
  -1.000   0.6110   0.00730   0.00192  -0.1589  0.6808  0.3372  -0.9051   0.0000   0.0000   0.0000   0.5100
  -0.900   0.6226   0.00726   0.00191  -0.1590  0.6790  0.3531  -0.9138   0.0000   0.0000   0.0000   0.5051
  -0.800   0.6341   0.00723   0.00191  -0.1591  0.6773  0.3686  -0.9229   0.0000   0.0000   0.0000   0.5005
  -0.700   0.6457   0.00720   0.00191  -0.1592  0.6753  0.3836  -0.9321   0.0000   0.0000   0.0000   0.4960
  -0.600   0.6573   0.00716   0.00191  -0.1593  0.6731  0.3987  -0.9413   0.0000   0.0000   0.0000   0.4916
  -0.500   0.6688   0.00712   0.00192  -0.1594  0.6709  0.4149  -0.9505   0.0000   0.0000   0.0000   0.4874
  -0.400   0.6804   0.00709   0.00192  -0.1595  0.6690  0.4312  -0.9600   0.0000   0.0000   0.0000   0.4833
  -0.300   0.6919   0.00706   0.00192  -0.1596  0.6672  0.4480  -0.9694   0.0000   0.0000   0.0000   0.4794
  -0.200   0.7034   0.00704   0.00193  -0.1597  0.6655  0.4652  -0.9789   0.0000   0.0000   0.0000   0.4756
  -0.100   0.7150   0.00700   0.00194  -0.1599  0.6634  0.4819  -0.9884   0.0000   0.0000   0.0000   0.4719
   0.000   0.7266   0.00696   0.00195  -0.1600  0.6614  0.4995  -0.9979   0.0000   0.0000   0.0000   0.4684
   0.100   0.7382   0.00693   0.00196  -0.1601  0.6594  0.5192  -1.0074   0.0000   0.0000   0.0000   0.4649
   0.200   0.7497   0.00690   0.00198  -0.1602  0.6575  0.5412  -1.0169   0.0000   0.0000   0.0000   0.4616
   0.300   0.7611   0.00688   0.00199  -0.1603  0.6558  0.5626  -1.0264   0.0000   0.0000   0.0000   0.4583
   0.400   0.7726   0.00684   0.00201  -0.1604  0.6537  0.5829  -1.0359   0.0000   0.0000   0.0000   0.4552
   0.500   0.7842   0.00681   0.00203  -0.1604  0.6513  0.6029  -1.0455   0.0000   0.0000   0.0000   0.4521
   0.600   0.7956   0.00678   0.00205  -0.1605  0.6489  0.6241  -1.0550   0.0000   0.0000   0.0000   0.4491
   0.700   0.8068   0.00677   0.00207  -0.1605  0.6465  0.6446  -1.0644   0.0000   0.0000   0.0000   0.4462
   0.800   0.8180   0.00676   0.00210  -0.1605  0.6442  0.6651  -1.0738   0.0000   0.0000   0.0000   0.4433
   0.900   0.8294   0.00674   0.00212  -0.1606  0.6414  0.6845  -1.0846   0.0000   0.0000   0.0000   0.4405
   1.100   0.8517   0.00673   0.00218  -0.1606  0.6360  0.7178  -1.1062   0.0000   0.0000   0.0000   0.4352
   1.200   0.8628   0.00674   0.00220  -0.1605  0.6336  0.7326  -1.1170   0.0000   0.0000   0.0000   0.4326
   1.300   0.8741   0.00674   0.00223  -0.1606  0.6308  0.7453  -1.1279   0.0000   0.0000   0.0000   0.4300
   1.400   0.8853   0.00674   0.00225  -0.1606  0.6281  0.7560  -1.1388   0.0000   0.0000   0.0000   0.4276
   1.500   0.8964   0.00676   0.00228  -0.1605  0.6256  0.7664  -1.1500   0.0000   0.0000   0.0000   0.4252
   1.700   0.9185   0.00679   0.00234  -0.1605  0.6207  0.7874  -1.1723   0.0000   0.0000   0.0000   0.4205
   1.800   0.9296   0.00680   0.00236  -0.1605  0.6180  0.7976  -1.1835   0.0000   0.0000   0.0000   0.4183
   2.000   0.9512   0.00684   0.00242  -0.1603  0.6128  0.8173  -1.2055   0.0000   0.0000   0.0000   0.4139
   2.100   0.9622   0.00684   0.00245  -0.1603  0.6097  0.8271  -1.2180   0.0000   0.0000   0.0000   0.4118
   2.200   0.9729   0.00685   0.00248  -0.1602  0.6064  0.8367  -1.2312   0.0000   0.0000   0.0000   0.4097
   2.300   0.9834   0.00688   0.00251  -0.1600  0.6032  0.8463  -1.2441   0.0000   0.0000   0.0000   0.4077
   2.400   0.9940   0.00690   0.00254  -0.1599  0.5999  0.8557  -1.2572   0.0000   0.0000   0.0000   0.4057
   2.500   1.0044   0.00691   0.00257  -0.1597  0.5962  0.8653  -1.2702   0.0000   0.0000   0.0000   0.4037
   2.600   1.0145   0.00693   0.00260  -0.1595  0.5926  0.8758  -1.2829   0.0000   0.0000   0.0000   0.4018
   2.700   1.0245   0.00695   0.00263  -0.1592  0.5892  0.8875  -1.2957   0.0000   0.0000   0.0000   0.3999
   2.800   1.0342   0.00695   0.00265  -0.1589  0.5856  0.9000  -1.3082   0.0000   0.0000   0.0000   0.3979
   2.900   1.0432   0.00696   0.00268  -0.1584  0.5822  0.9145  -1.3202   0.0000   0.0000   0.0000   0.3960
   3.000   1.0514   0.00696   0.00270  -0.1577  0.5791  0.9343  -1.3318   0.0000   0.0000   0.0000   0.3940
   3.100   1.0616   0.00690   0.00268  -0.1574  0.5757  0.9934  -1.3447   0.0000   0.0000   0.0000   0.3922
   3.200   1.0728   0.00695   0.00272  -0.1575  0.5723  1.0000  -1.3584   0.0000   0.0000   0.0000   0.3906
   3.300   1.0837   0.00702   0.00276  -0.1575  0.5690  1.0000  -1.3719   0.0000   0.0000   0.0000   0.3890
   3.400   1.0951   0.00706   0.00279  -0.1576  0.5654  1.0000  -1.3857   0.0000   0.0000   0.0000   0.3874
   3.500   1.1062   0.00712   0.00283  -0.1576  0.5617  1.0000  -1.3994   0.0000   0.0000   0.0000   0.3859
   3.600   1.1169   0.00720   0.00288  -0.1576  0.5582  1.0000  -1.4128   0.0000   0.0000   0.0000   0.3843
   3.700   1.1282   0.00724   0.00292  -0.1576  0.5544  1.0000  -1.4267   0.0000   0.0000   0.0000   0.3828
   3.900   1.1498   0.00738   0.00302  -0.1576  0.5468  1.0000  -1.4544   0.0000   0.0000   0.0000   0.3799
   4.000   1.1608   0.00743   0.00306  -0.1576  0.5427  1.0000  -1.4698   0.0000   0.0000   0.0000   0.3785
   4.100   1.1715   0.00750   0.00311  -0.1576  0.5384  1.0000  -1.4850   0.0000   0.0000   0.0000   0.3771
   4.200   1.1822   0.00758   0.00316  -0.1576  0.5343  1.0000  -1.5007   0.0000   0.0000   0.0000   0.3757
   4.300   1.1930   0.00764   0.00322  -0.1575  0.5297  1.0000  -1.5166   0.0000   0.0000   0.0000   0.3744
   4.400   1.2033   0.00773   0.00328  -0.1574  0.5253  1.0000  -1.5321   0.0000   0.0000   0.0000   0.3730
   4.500   1.2141   0.00779   0.00333  -0.1574  0.5208  1.0000  -1.5482   0.0000   0.0000   0.0000   0.3717
   4.600   1.2245   0.00788   0.00340  -0.1573  0.5163  1.0000  -1.5641   0.0000   0.0000   0.0000   0.3704
   4.700   1.2350   0.00796   0.00346  -0.1573  0.5121  1.0000  -1.5809   0.0000   0.0000   0.0000   0.3691
   4.800   1.2455   0.00804   0.00352  -0.1572  0.5076  1.0000  -1.5979   0.0000   0.0000   0.0000   0.3678
   4.900   1.2556   0.00814   0.00359  -0.1571  0.5035  1.0000  -1.6144   0.0000   0.0000   0.0000   0.3665
   5.000   1.2663   0.00820   0.00365  -0.1571  0.4990  1.0000  -1.6316   0.0000   0.0000   0.0000   0.3653
   5.100   1.2765   0.00830   0.00373  -0.1569  0.4944  1.0000  -1.6483   0.0000   0.0000   0.0000   0.3641
   5.200   1.2867   0.00838   0.00380  -0.1568  0.4899  1.0000  -1.6655   0.0000   0.0000   0.0000   0.3629
   5.300   1.2970   0.00847   0.00387  -0.1567  0.4851  1.0000  -1.6854   0.0000   0.0000   0.0000   0.3617
   5.400   1.3069   0.00858   0.00395  -0.1566  0.4804  1.0000  -1.7050   0.0000   0.0000   0.0000   0.3605
   5.500   1.3171   0.00867   0.00403  -0.1564  0.4750  1.0000  -1.7250   0.0000   0.0000   0.0000   0.3594
   5.600   1.3268   0.00878   0.00412  -0.1562  0.4700  1.0000  -1.7445   0.0000   0.0000   0.0000   0.3582
   5.700   1.3369   0.00887   0.00419  -0.1561  0.4645  1.0000  -1.7646   0.0000   0.0000   0.0000   0.3571
   5.800   1.3464   0.00900   0.00429  -0.1559  0.4593  1.0000  -1.7840   0.0000   0.0000   0.0000   0.3559
   5.900   1.3565   0.00909   0.00437  -0.1558  0.4538  1.0000  -1.8041   0.0000   0.0000   0.0000   0.3548
   6.000   1.3658   0.00922   0.00447  -0.1555  0.4487  1.0000  -1.8236   0.0000   0.0000   0.0000   0.3537
   6.100   1.3758   0.00931   0.00455  -0.1554  0.4435  1.0000  -1.8486   0.0000   0.0000   0.0000   0.3526
   6.200   1.3851   0.00944   0.00466  -0.1551  0.4385  1.0000  -1.8729   0.0000   0.0000   0.0000   0.3515
   6.300   1.3949   0.00954   0.00475  -0.1549  0.4334  1.0000  -1.8979   0.0000   0.0000   0.0000   0.3505
   6.400   1.4039   0.00968   0.00485  -0.1546  0.4279  1.0000  -1.9221   0.0000   0.0000   0.0000   0.3494
   6.500   1.4135   0.00979   0.00495  -0.1544  0.4223  1.0000  -1.9469   0.0000   0.0000   0.0000   0.3483
   6.700   1.4317   0.01006   0.00517  -0.1538  0.4106  1.0000  -1.9957   0.0000   0.0000   0.0000   0.3462
   6.800   1.4403   0.01021   0.00529  -0.1534  0.4050  1.0000  -2.0196   0.0000   0.0000   0.0000   0.3452
   6.900   1.4494   0.01034   0.00541  -0.1532  0.3988  1.0000  -2.0443   0.0000   0.0000   0.0000   0.3441
   7.000   1.4579   0.01049   0.00553  -0.1528  0.3928  1.0000  -2.0683   0.0000   0.0000   0.0000   0.3431
   7.100   1.4665   0.01064   0.00566  -0.1524  0.3864  1.0000  -2.0924   0.0000   0.0000   0.0000   0.3421
   7.200   1.4749   0.01080   0.00579  -0.1520  0.3802  1.0000  -2.1164   0.0000   0.0000   0.0000   0.3411
   7.300   1.4828   0.01098   0.00593  -0.1515  0.3742  1.0000  -2.1418   0.0000   0.0000   0.0000   0.3400
   7.400   1.4913   0.01112   0.00606  -0.1511  0.3682  1.0000  -2.1730   0.0000   0.0000   0.0000   0.3390
   7.500   1.4990   0.01131   0.00621  -0.1506  0.3625  1.0000  -2.2029   0.0000   0.0000   0.0000   0.3380
   7.600   1.5074   0.01145   0.00634  -0.1502  0.3565  1.0000  -2.2343   0.0000   0.0000   0.0000   0.3370
   7.700   1.5146   0.01162   0.00649  -0.1496  0.3509  1.0000  -2.2638   0.0000   0.0000   0.0000   0.3360
   7.800   1.5219   0.01179   0.00664  -0.1490  0.3448  1.0000  -2.2936   0.0000   0.0000   0.0000   0.3349
   7.900   1.5290   0.01197   0.00679  -0.1484  0.3390  1.0000  -2.3231   0.0000   0.0000   0.0000   0.3339
   8.000   1.5358   0.01216   0.00696  -0.1477  0.3328  1.0000  -2.3522   0.0000   0.0000   0.0000   0.3329
   8.100   1.5428   0.01234   0.00712  -0.1471  0.3269  1.0000  -2.3819   0.0000   0.0000   0.0000   0.3319
   8.200   1.5489   0.01256   0.00731  -0.1463  0.3211  1.0000  -2.4101   0.0000   0.0000   0.0000   0.3308
   8.300   1.5558   0.01275   0.00748  -0.1456  0.3149  1.0000  -2.4398   0.0000   0.0000   0.0000   0.3299
   8.400   1.5619   0.01298   0.00768  -0.1449  0.3093  1.0000  -2.4682   0.0000   0.0000   0.0000   0.3288
   8.500   1.5681   0.01320   0.00788  -0.1441  0.3032  1.0000  -2.4968   0.0000   0.0000   0.0000   0.3278
   8.600   1.5743   0.01343   0.00808  -0.1434  0.2973  1.0000  -2.5255   0.0000   0.0000   0.0000   0.3268
   8.800   1.5862   0.01390   0.00852  -0.1419  0.2855  1.0000  -2.5824   0.0000   0.0000   0.0000   0.3249
   8.900   1.5918   0.01416   0.00875  -0.1411  0.2801  1.0000  -2.6103   0.0000   0.0000   0.0000   0.3239
   9.000   1.5979   0.01440   0.00897  -0.1405  0.2746  1.0000  -2.6455   0.0000   0.0000   0.0000   0.3230
   9.100   1.6035   0.01466   0.00922  -0.1397  0.2696  1.0000  -2.6868   0.0000   0.0000   0.0000   0.3220
   9.200   1.6093   0.01493   0.00946  -0.1390  0.2646  1.0000  -2.7319   0.0000   0.0000   0.0000   0.3211
   9.300   1.6149   0.01520   0.00972  -0.1382  0.2602  1.0000  -2.7875   0.0000   0.0000   0.0000   0.3202
   9.400   1.6207   0.01547   0.00998  -0.1376  0.2555  1.0000  -2.8443   0.0000   0.0000   0.0000   0.3192
   9.500   1.6260   0.01577   0.01026  -0.1368  0.2513  1.0000  -2.8996   0.0000   0.0000   0.0000   0.3183
   9.600   1.6318   0.01605   0.01053  -0.1361  0.2466  1.0000  -2.9571   0.0000   0.0000   0.0000   0.3174
   9.700   1.6367   0.01638   0.01085  -0.1354  0.2422  1.0000  -3.0118   0.0000   0.0000   0.0000   0.3165
   9.800   1.6424   0.01668   0.01114  -0.1347  0.2373  1.0000  -3.0693   0.0000   0.0000   0.0000   0.3157
   9.900   1.6470   0.01703   0.01147  -0.1339  0.2326  1.0000  -3.1239   0.0000   0.0000   0.0000   0.3148
  10.000   1.6522   0.01736   0.01179  -0.1332  0.2272  1.0000  -3.1805   0.0000   0.0000   0.0000   0.3139
  10.100   1.6568   0.01774   0.01214  -0.1325  0.2220  1.0000  -3.2355   0.0000   0.0000   0.0000   0.3131
  10.200   1.6610   0.01814   0.01252  -0.1317  0.2165  1.0000  -3.2896   0.0000   0.0000   0.0000   0.3122
  10.300   1.6657   0.01852   0.01288  -0.1310  0.2112  1.0000  -3.3455   0.0000   0.0000   0.0000   0.3114
  10.400   1.6693   0.01896   0.01330  -0.1301  0.2061  1.0000  -3.3982   0.0000   0.0000   0.0000   0.3105
  10.500   1.6737   0.01937   0.01369  -0.1294  0.2005  1.0000  -3.4535   0.0000   0.0000   0.0000   0.3097
  10.600   1.6775   0.01981   0.01412  -0.1286  0.1954  1.0000  -3.5073   0.0000   0.0000   0.0000   0.3089
  10.700   1.6810   0.02029   0.01457  -0.1278  0.1902  1.0000  -3.5601   0.0000   0.0000   0.0000   0.3080
  10.800   1.6852   0.02073   0.01500  -0.1271  0.1852  1.0000  -3.6158   0.0000   0.0000   0.0000   0.3072
  10.900   1.6884   0.02123   0.01548  -0.1263  0.1804  1.0000  -3.6682   0.0000   0.0000   0.0000   0.3064
  11.000   1.6926   0.02167   0.01591  -0.1256  0.1754  1.0000  -3.7244   0.0000   0.0000   0.0000   0.3056
  11.100   1.6961   0.02217   0.01639  -0.1249  0.1707  1.0000  -3.7783   0.0000   0.0000   0.0000   0.3048
  11.200   1.6994   0.02268   0.01688  -0.1241  0.1657  1.0000  -3.8320   0.0000   0.0000   0.0000   0.3041
  11.300   1.7030   0.02317   0.01736  -0.1234  0.1611  1.0000  -3.8867   0.0000   0.0000   0.0000   0.3033
  11.400   1.7057   0.02374   0.01791  -0.1226  0.1566  1.0000  -3.9382   0.0000   0.0000   0.0000   0.3025
  11.500   1.7093   0.02425   0.01840  -0.1219  0.1521  1.0000  -3.9938   0.0000   0.0000   0.0000   0.3018
  11.600   1.7120   0.02483   0.01896  -0.1211  0.1480  1.0000  -4.0456   0.0000   0.0000   0.0000   0.3010
  11.700   1.7152   0.02537   0.01949  -0.1204  0.1438  1.0000  -4.0998   0.0000   0.0000   0.0000   0.3003
  11.800   1.7178   0.02595   0.02007  -0.1197  0.1401  1.0000  -4.1520   0.0000   0.0000   0.0000   0.2995
  11.900   1.7208   0.02651   0.02062  -0.1190  0.1358  1.0000  -4.2061   0.0000   0.0000   0.0000   0.2988
  12.000   1.7233   0.02712   0.02121  -0.1182  0.1320  1.0000  -4.2584   0.0000   0.0000   0.0000   0.2980
  12.100   1.7258   0.02772   0.02181  -0.1175  0.1279  1.0000  -4.3108   0.0000   0.0000   0.0000   0.2973
  12.200   1.7283   0.02834   0.02242  -0.1168  0.1242  1.0000  -4.3635   0.0000   0.0000   0.0000   0.2966
  12.300   1.7304   0.02899   0.02306  -0.1160  0.1203  1.0000  -4.4145   0.0000   0.0000   0.0000   0.2959
  12.400   1.7329   0.02962   0.02368  -0.1153  0.1167  1.0000  -4.4675   0.0000   0.0000   0.0000   0.2952
  12.500   1.7345   0.03030   0.02435  -0.1146  0.1130  1.0000  -4.5173   0.0000   0.0000   0.0000   0.2945
  12.600   1.7368   0.03095   0.02499  -0.1139  0.1096  1.0000  -4.5699   0.0000   0.0000   0.0000   0.2938
  12.700   1.7383   0.03166   0.02569  -0.1131  0.1064  1.0000  -4.6192   0.0000   0.0000   0.0000   0.2931
  12.800   1.7405   0.03232   0.02635  -0.1125  0.1033  1.0000  -4.6720   0.0000   0.0000   0.0000   0.2924
  12.900   1.7421   0.03303   0.02705  -0.1118  0.1002  1.0000  -4.7221   0.0000   0.0000   0.0000   0.2917
  13.000   1.7442   0.03372   0.02775  -0.1111  0.0973  1.0000  -4.7743   0.0000   0.0000   0.0000   0.2911
  13.100   1.7460   0.03443   0.02845  -0.1105  0.0943  1.0000  -4.8261   0.0000   0.0000   0.0000   0.2904
  13.200   1.7477   0.03517   0.02919  -0.1098  0.0917  1.0000  -4.8769   0.0000   0.0000   0.0000   0.2898
  13.300   1.7498   0.03587   0.02990  -0.1092  0.0889  1.0000  -4.9299   0.0000   0.0000   0.0000   0.2891
  13.400   1.7509   0.03667   0.03069  -0.1085  0.0864  1.0000  -4.9789   0.0000   0.0000   0.0000   0.2885
  13.500   1.7532   0.03736   0.03139  -0.1080  0.0839  1.0000  -5.0332   0.0000   0.0000   0.0000   0.2879
  13.600   1.7545   0.03815   0.03218  -0.1073  0.0814  1.0000  -5.0831   0.0000   0.0000   0.0000   0.2873
  13.700   1.7562   0.03892   0.03295  -0.1067  0.0792  1.0000  -5.1350   0.0000   0.0000   0.0000   0.2866
  13.800   1.7578   0.03969   0.03372  -0.1062  0.0770  1.0000  -5.1867   0.0000   0.0000   0.0000   0.2860
  14.000   1.7608   0.04129   0.03534  -0.1050  0.0729  1.0000  -5.2895   0.0000   0.0000   0.0000   0.2849
  14.100   1.7621   0.04212   0.03617  -0.1045  0.0708  1.0000  -5.3403   0.0000   0.0000   0.0000   0.2843
  14.200   1.7630   0.04301   0.03706  -0.1039  0.0690  1.0000  -5.3890   0.0000   0.0000   0.0000   0.2837
  14.300   1.7649   0.04379   0.03786  -0.1034  0.0671  1.0000  -5.4429   0.0000   0.0000   0.0000   0.2831
  14.400   1.7659   0.04468   0.03875  -0.1029  0.0653  1.0000  -5.4924   0.0000   0.0000   0.0000   0.2826
  14.500   1.7667   0.04559   0.03967  -0.1024  0.0636  1.0000  -5.5411   0.0000   0.0000   0.0000   0.2820
  14.600   1.7684   0.04641   0.04051  -0.1019  0.0618  1.0000  -5.5945   0.0000   0.0000   0.0000   0.2815
  14.700   1.7691   0.04734   0.04144  -0.1014  0.0599  1.0000  -5.6430   0.0000   0.0000   0.0000   0.2810
  14.800   1.7696   0.04828   0.04239  -0.1009  0.0583  1.0000  -5.6912   0.0000   0.0000   0.0000   0.2804
  14.900   1.7708   0.04918   0.04330  -0.1005  0.0565  1.0000  -5.7421   0.0000   0.0000   0.0000   0.2799
  15.000   1.7711   0.05015   0.04428  -0.1000  0.0548  1.0000  -5.7896   0.0000   0.0000   0.0000   0.2794
  15.100   1.7715   0.05115   0.04529  -0.0996  0.0533  1.0000  -5.8368   0.0000   0.0000   0.0000   0.2789
  15.200   1.7726   0.05207   0.04623  -0.0992  0.0516  1.0000  -5.8882   0.0000   0.0000   0.0000   0.2784
  15.300   1.7728   0.05310   0.04726  -0.0987  0.0499  1.0000  -5.9350   0.0000   0.0000   0.0000   0.2779
  15.400   1.7730   0.05415   0.04832  -0.0983  0.0484  1.0000  -5.9815   0.0000   0.0000   0.0000   0.2775
  15.500   1.7736   0.05514   0.04932  -0.0979  0.0469  1.0000  -6.0307   0.0000   0.0000   0.0000   0.2770
  15.600   1.7733   0.05624   0.05044  -0.0975  0.0454  1.0000  -6.0753   0.0000   0.0000   0.0000   0.2765
  15.700   1.7731   0.05734   0.05155  -0.0972  0.0441  1.0000  -6.1203   0.0000   0.0000   0.0000   0.2761
  15.800   1.7736   0.05838   0.05261  -0.0968  0.0427  1.0000  -6.1687   0.0000   0.0000   0.0000   0.2756
  15.900   1.7732   0.05952   0.05376  -0.0965  0.0414  1.0000  -6.2128   0.0000   0.0000   0.0000   0.2752
  16.100   1.7724   0.06180   0.05607  -0.0958  0.0392  1.0000  -6.3013   0.0000   0.0000   0.0000   0.2744
  16.200   1.7722   0.06292   0.05721  -0.0955  0.0380  1.0000  -6.3464   0.0000   0.0000   0.0000   0.2740
  16.300   1.7712   0.06416   0.05846  -0.0952  0.0369  1.0000  -6.3875   0.0000   0.0000   0.0000   0.2736
  16.400   1.7699   0.06544   0.05975  -0.0949  0.0360  1.0000  -6.4272   0.0000   0.0000   0.0000   0.2732
  16.500   1.7703   0.06652   0.06086  -0.0946  0.0350  1.0000  -6.4755   0.0000   0.0000   0.0000   0.2728
  16.600   1.7698   0.06772   0.06209  -0.0944  0.0339  1.0000  -6.5192   0.0000   0.0000   0.0000   0.2724
  16.700   1.7688   0.06899   0.06338  -0.0942  0.0330  1.0000  -6.5602   0.0000   0.0000   0.0000   0.2721
  16.800   1.7670   0.07037   0.06477  -0.0939  0.0321  1.0000  -6.5973   0.0000   0.0000   0.0000   0.2718
  16.900   1.7672   0.07152   0.06594  -0.0937  0.0312  1.0000  -6.6440   0.0000   0.0000   0.0000   0.2714
  17.000   1.7665   0.07277   0.06723  -0.0936  0.0303  1.0000  -6.6867   0.0000   0.0000   0.0000   0.2711
  17.100   1.7652   0.07411   0.06859  -0.0934  0.0294  1.0000  -6.7259   0.0000   0.0000   0.0000   0.2708
  17.200   1.7633   0.07553   0.07002  -0.0932  0.0287  1.0000  -6.7621   0.0000   0.0000   0.0000   0.2705
  17.300   1.7624   0.07684   0.07135  -0.0931  0.0279  1.0000  -6.8033   0.0000   0.0000   0.0000   0.2702
  17.400   1.7617   0.07811   0.07265  -0.0930  0.0271  1.0000  -6.8456   0.0000   0.0000   0.0000   0.2699
  17.500   1.7601   0.07949   0.07406  -0.0929  0.0263  1.0000  -6.8833   0.0000   0.0000   0.0000   0.2696
  17.600   1.7582   0.08092   0.07551  -0.0928  0.0255  1.0000  -6.9189   0.0000   0.0000   0.0000   0.2694
  17.700   1.7557   0.08245   0.07706  -0.0927  0.0249  1.0000  -6.9513   0.0000   0.0000   0.0000   0.2691
  17.800   1.7546   0.08379   0.07843  -0.0926  0.0243  1.0000  -6.9914   0.0000   0.0000   0.0000   0.2689
  17.900   1.7529   0.08523   0.07990  -0.0926  0.0236  1.0000  -7.0278   0.0000   0.0000   0.0000   0.2686
  18.000   1.7510   0.08670   0.08140  -0.0925  0.0230  1.0000  -7.0629   0.0000   0.0000   0.0000   0.2684
  18.100   1.7485   0.08827   0.08298  -0.0925  0.0224  1.0000  -7.0951   0.0000   0.0000   0.0000   0.2682
  18.200   1.7457   0.08988   0.08462  -0.0926  0.0219  1.0000  -7.1322   0.0000   0.0000   0.0000   0.2681
  18.300   1.7437   0.09139   0.08616  -0.0926  0.0214  1.0000  -7.1745   0.0000   0.0000   0.0000   0.2679
  18.400   1.7419   0.09288   0.08768  -0.0926  0.0209  1.0000  -7.2179   0.0000   0.0000   0.0000   0.2677
  18.500   1.7399   0.09441   0.08924  -0.0927  0.0205  1.0000  -7.2595   0.0000   0.0000   0.0000   0.2676
  18.600   1.7373   0.09601   0.09088  -0.0928  0.0200  1.0000  -7.2980   0.0000   0.0000   0.0000   0.2674
  18.700   1.7346   0.09764   0.09254  -0.0929  0.0196  1.0000  -7.3352   0.0000   0.0000   0.0000   0.2673
  18.800   1.7313   0.09937   0.09429  -0.0931  0.0192  1.0000  -7.3684   0.0000   0.0000   0.0000   0.2673
  18.900   1.7279   0.10110   0.09605  -0.0932  0.0188  1.0000  -7.4002   0.0000   0.0000   0.0000   0.2672
  19.000   1.7253   0.10272   0.09771  -0.0934  0.0185  1.0000  -7.4374   0.0000   0.0000   0.0000   0.2671
  19.100   1.7234   0.10425   0.09927  -0.0936  0.0182  1.0000  -7.4791   0.0000   0.0000   0.0000   0.2670
  19.200   1.7209   0.10587   0.10093  -0.0938  0.0178  1.0000  -7.5166   0.0000   0.0000   0.0000   0.2669
  19.300   1.7184   0.10750   0.10259  -0.0940  0.0175  1.0000  -7.5541   0.0000   0.0000   0.0000   0.2669
  19.400   1.7154   0.10922   0.10434  -0.0943  0.0172  1.0000  -7.5876   0.0000   0.0000   0.0000   0.2669
  19.500   1.7123   0.11094   0.10610  -0.0946  0.0169  1.0000  -7.6210   0.0000   0.0000   0.0000   0.2669
  19.600   1.7087   0.11277   0.10796  -0.0949  0.0166  1.0000  -7.6499   0.0000   0.0000   0.0000   0.2669
  19.700   1.7051   0.11460   0.10982  -0.0952  0.0163  1.0000  -7.6787   0.0000   0.0000   0.0000   0.2670
  19.800   1.7009   0.11652   0.11177  -0.0957  0.0160  1.0000  -7.7023   0.0000   0.0000   0.0000   0.2671
  19.900   1.6982   0.11824   0.11352  -0.0960  0.0158  1.0000  -7.7366   0.0000   0.0000   0.0000   0.2671
  20.000   1.6958   0.11992   0.11524  -0.0964  0.0155  1.0000  -7.7727   0.0000   0.0000   0.0000   0.2671


