xflr5 v6.57

 Calculated polar for: rev_root_140

 1 1 Reynolds number fixed          Mach number fixed         

 xtrf =   1.000 (top)        1.000 (bottom)
 Mach =   0.000     Re =     0.380 e 6     Ncrit =   9.000

  alpha     CL        CD       CDp       Cm    Top Xtr Bot Xtr   Cpmin    Chinge    XCp    
 ------- -------- --------- --------- -------- ------- ------- -------- --------- ---------
  -9.400  -0.2323   0.05388   0.05074  -0.1167  0.8629  0.0317  -3.8382   0.0000   0.0000   0.0000  -0.2859
  -9.300  -0.2296   0.05258   0.04943  -0.1178  0.8608  0.0318  -3.8171   0.0000   0.0000   0.0000  -0.2967
  -9.200  -0.2268   0.05119   0.04804  -0.1194  0.8580  0.0319  -3.7985   0.0000   0.0000   0.0000  -0.3099
  -9.100  -0.2243   0.04981   0.04665  -0.1211  0.8555  0.0320  -3.7807   0.0000   0.0000   0.0000  -0.3233
  -9.000  -0.2200   0.04824   0.04506  -0.1237  0.8534  0.0322  -3.7584   0.0000   0.0000   0.0000  -0.3454
  -8.900  -0.2140   0.04660   0.04339  -0.1271  0.8512  0.0324  -3.7285   0.0000   0.0000   0.0000  -0.3774
  -8.800  -0.2069   0.04532   0.04208  -0.1302  0.8486  0.0326  -3.6830   0.0000   0.0000   0.0000  -0.4131
  -8.700  -0.1990   0.04470   0.04144  -0.1316  0.8466  0.0329  -3.6157   0.0000   0.0000   0.0000  -0.4461
  -8.600  -0.1895   0.04491   0.04164  -0.1315  0.8450  0.0334  -3.5143   0.0000   0.0000   0.0000  -0.4800
  -8.500  -0.1709   0.05091   0.04776  -0.1222  0.8444  0.0368  -3.1719   0.0000   0.0000   0.0000  -0.5039
  -8.400  -0.1642   0.04944   0.04629  -0.1251  0.8422  0.0371  -3.1381   0.0000   0.0000   0.0000  -0.5513
  -8.300  -0.1567   0.04794   0.04475  -0.1285  0.8399  0.0375  -3.1007   0.0000   0.0000   0.0000  -0.6108
  -8.200  -0.1485   0.04749   0.04427  -0.1298  0.8380  0.0381  -3.0306   0.0000   0.0000   0.0000  -0.6661
  -8.100  -0.1461   0.04438   0.04102  -0.1357  0.8359  0.0421  -3.0603   0.0000   0.0000   0.0000  -0.7209
  -8.000  -0.1379   0.04408   0.04070  -0.1361  0.8343  0.0425  -2.9903   0.0000   0.0000   0.0000  -0.7800
  -7.900  -0.1293   0.04399   0.04062  -0.1363  0.8323  0.0432  -2.9115   0.0000   0.0000   0.0000  -0.8496
  -7.700  -0.1527   0.02042   0.01434  -0.1526  0.8271  0.0322  -4.0490   0.0000   0.0000   0.0000  -0.7906
  -7.600  -0.1420   0.02011   0.01401  -0.1527  0.8260  0.0326  -3.9702   0.0000   0.0000   0.0000  -0.8698
  -7.500  -0.1316   0.01983   0.01371  -0.1528  0.8242  0.0330  -3.8950   0.0000   0.0000   0.0000  -0.9583
  -7.400  -0.1210   0.01953   0.01338  -0.1529  0.8224  0.0333  -3.8219   0.0000   0.0000   0.0000  -1.0636
  -7.300  -0.1103   0.01919   0.01299  -0.1530  0.8209  0.0337  -3.7529   0.0000   0.0000   0.0000  -1.1908
  -7.200  -0.0995   0.01882   0.01255  -0.1531  0.8195  0.0341  -3.6871   0.0000   0.0000   0.0000  -1.3472
  -7.100  -0.0886   0.01845   0.01210  -0.1532  0.8182  0.0344  -3.6225   0.0000   0.0000   0.0000  -1.5447
  -7.000  -0.0775   0.01809   0.01165  -0.1534  0.8171  0.0348  -3.5580   0.0000   0.0000   0.0000  -1.8018
  -6.900  -0.0667   0.01776   0.01124  -0.1534  0.8156  0.0351  -3.5032   0.0000   0.0000   0.0000  -2.1342
  -6.800  -0.0559   0.01746   0.01087  -0.1535  0.8138  0.0355  -3.4480   0.0000   0.0000   0.0000  -2.5926
  -6.700  -0.0449   0.01720   0.01053  -0.1535  0.8121  0.0358  -3.3910   0.0000   0.0000   0.0000  -3.2883
  -6.600  -0.0340   0.01686   0.01013  -0.1536  0.8106  0.0361  -3.3346   0.0000   0.0000   0.0000  -4.4266
  -6.500  -0.0234   0.01642   0.00969  -0.1537  0.8092  0.0366  -3.2743   0.0000   0.0000   0.0000  -6.5453
  -6.400  -0.0123   0.01616   0.00943  -0.1538  0.8080  0.0371  -3.2059   0.0000   0.0000   0.0000  -12.6709
  -6.300  -0.0013   0.01596   0.00923  -0.1538  0.8066  0.0377  -3.1378   0.0000   0.0000   0.0000  -125.2004
  -6.200   0.0095   0.01578   0.00904  -0.1539  0.8048  0.0383  -3.0726   0.0000   0.0000   0.0000  16.9016
  -6.100   0.0206   0.01558   0.00881  -0.1539  0.8032  0.0390  -3.0092   0.0000   0.0000   0.0000   7.9725
  -6.000   0.0317   0.01538   0.00857  -0.1540  0.8017  0.0396  -2.9473   0.0000   0.0000   0.0000   5.2537
  -5.900   0.0430   0.01519   0.00832  -0.1540  0.8004  0.0402  -2.8867   0.0000   0.0000   0.0000   3.9380
  -5.800   0.0545   0.01501   0.00808  -0.1541  0.7992  0.0407  -2.8262   0.0000   0.0000   0.0000   3.1603
  -5.700   0.0657   0.01467   0.00773  -0.1542  0.7981  0.0413  -2.7675   0.0000   0.0000   0.0000   2.6676
  -5.600   0.0764   0.01443   0.00753  -0.1543  0.7964  0.0420  -2.7050   0.0000   0.0000   0.0000   2.3281
  -5.500   0.0873   0.01426   0.00737  -0.1543  0.7946  0.0427  -2.6417   0.0000   0.0000   0.0000   2.0675
  -5.400   0.0985   0.01409   0.00720  -0.1544  0.7930  0.0436  -2.5791   0.0000   0.0000   0.0000   1.8612
  -5.300   0.1098   0.01393   0.00701  -0.1545  0.7916  0.0445  -2.5177   0.0000   0.0000   0.0000   1.6947
  -5.200   0.1213   0.01378   0.00681  -0.1545  0.7903  0.0455  -2.4642   0.0000   0.0000   0.0000   1.5574
  -5.100   0.1328   0.01355   0.00657  -0.1547  0.7892  0.0466  -2.4109   0.0000   0.0000   0.0000   1.4452
  -5.000   0.1443   0.01340   0.00643  -0.1549  0.7881  0.0479  -2.3524   0.0000   0.0000   0.0000   1.3502
  -4.900   0.1553   0.01328   0.00632  -0.1549  0.7863  0.0495  -2.2976   0.0000   0.0000   0.0000   1.2721
  -4.800   0.1666   0.01318   0.00619  -0.1549  0.7846  0.0513  -2.2455   0.0000   0.0000   0.0000   1.2025
  -4.700   0.1778   0.01298   0.00602  -0.1551  0.7831  0.0531  -2.1899   0.0000   0.0000   0.0000   1.1427
  -4.600   0.1893   0.01286   0.00589  -0.1552  0.7817  0.0554  -2.1353   0.0000   0.0000   0.0000   1.0884
  -4.500   0.2009   0.01270   0.00572  -0.1553  0.7804  0.0580  -2.0825   0.0000   0.0000   0.0000   1.0402
  -4.400   0.2127   0.01257   0.00559  -0.1554  0.7793  0.0610  -2.0271   0.0000   0.0000   0.0000   0.9968
  -4.300   0.2242   0.01243   0.00543  -0.1556  0.7780  0.0644  -1.9738   0.0000   0.0000   0.0000   0.9586
  -4.200   0.2353   0.01232   0.00534  -0.1556  0.7762  0.0683  -1.9207   0.0000   0.0000   0.0000   0.9250
  -4.100   0.2466   0.01217   0.00522  -0.1557  0.7745  0.0724  -1.8701   0.0000   0.0000   0.0000   0.8942
  -4.000   0.2581   0.01205   0.00511  -0.1558  0.7730  0.0772  -1.8215   0.0000   0.0000   0.0000   0.8656
  -3.900   0.2697   0.01195   0.00500  -0.1560  0.7716  0.0825  -1.7717   0.0000   0.0000   0.0000   0.8392
  -3.800   0.2814   0.01184   0.00490  -0.1561  0.7703  0.0886  -1.7208   0.0000   0.0000   0.0000   0.8148
  -3.700   0.2933   0.01174   0.00481  -0.1563  0.7691  0.0953  -1.6695   0.0000   0.0000   0.0000   0.7923
  -3.600   0.3045   0.01165   0.00475  -0.1563  0.7674  0.1026  -1.6199   0.0000   0.0000   0.0000   0.7723
  -3.500   0.3157   0.01155   0.00468  -0.1564  0.7655  0.1105  -1.5705   0.0000   0.0000   0.0000   0.7537
  -3.400   0.3271   0.01146   0.00462  -0.1565  0.7639  0.1192  -1.5205   0.0000   0.0000   0.0000   0.7362
  -3.300   0.3386   0.01137   0.00456  -0.1566  0.7623  0.1287  -1.4703   0.0000   0.0000   0.0000   0.7197
  -3.200   0.3503   0.01128   0.00449  -0.1568  0.7610  0.1391  -1.4198   0.0000   0.0000   0.0000   0.7041
  -3.100   0.3622   0.01120   0.00443  -0.1570  0.7598  0.1504  -1.3691   0.0000   0.0000   0.0000   0.6895
  -3.000   0.3739   0.01113   0.00438  -0.1571  0.7585  0.1623  -1.3190   0.0000   0.0000   0.0000   0.6759
  -2.900   0.3849   0.01106   0.00437  -0.1571  0.7565  0.1746  -1.2709   0.0000   0.0000   0.0000   0.6636
  -2.800   0.3962   0.01099   0.00434  -0.1572  0.7548  0.1876  -1.2223   0.0000   0.0000   0.0000   0.6518
  -2.700   0.4077   0.01092   0.00431  -0.1573  0.7532  0.2008  -1.1738   0.0000   0.0000   0.0000   0.6405
  -2.600   0.4193   0.01086   0.00427  -0.1575  0.7517  0.2140  -1.1253   0.0000   0.0000   0.0000   0.6297
  -2.500   0.4311   0.01079   0.00423  -0.1576  0.7504  0.2273  -1.0769   0.0000   0.0000   0.0000   0.6195
  -2.400   0.4430   0.01073   0.00418  -0.1578  0.7493  0.2407  -1.0325   0.0000   0.0000   0.0000   0.6097
  -2.300   0.4544   0.01069   0.00417  -0.1579  0.7476  0.2537  -0.9899   0.0000   0.0000   0.0000   0.6007
  -2.200   0.4655   0.01064   0.00417  -0.1579  0.7457  0.2671  -0.9480   0.0000   0.0000   0.0000   0.5922
  -2.100   0.4769   0.01058   0.00416  -0.1580  0.7439  0.2810  -0.9060   0.0000   0.0000   0.0000   0.5840
  -2.000   0.4884   0.01053   0.00413  -0.1581  0.7423  0.2956  -0.8639   0.0000   0.0000   0.0000   0.5761
  -1.900   0.5002   0.01047   0.00409  -0.1583  0.7408  0.3109  -0.8244   0.0000   0.0000   0.0000   0.5685
  -1.800   0.5121   0.01042   0.00406  -0.1584  0.7395  0.3269  -0.8326   0.0000   0.0000   0.0000   0.5612
  -1.700   0.5236   0.01037   0.00405  -0.1585  0.7379  0.3438  -0.8404   0.0000   0.0000   0.0000   0.5544
  -1.600   0.5346   0.01032   0.00406  -0.1585  0.7357  0.3614  -0.8480   0.0000   0.0000   0.0000   0.5480
  -1.500   0.5459   0.01026   0.00406  -0.1586  0.7337  0.3792  -0.8558   0.0000   0.0000   0.0000   0.5417
  -1.400   0.5574   0.01020   0.00404  -0.1587  0.7320  0.3972  -0.8637   0.0000   0.0000   0.0000   0.5357
  -1.300   0.5691   0.01015   0.00401  -0.1588  0.7304  0.4157  -0.8718   0.0000   0.0000   0.0000   0.5298
  -1.200   0.5810   0.01010   0.00399  -0.1590  0.7291  0.4336  -0.8801   0.0000   0.0000   0.0000   0.5241
  -1.100   0.5923   0.01006   0.00400  -0.1590  0.7273  0.4519  -0.8878   0.0000   0.0000   0.0000   0.5188
  -1.000   0.6033   0.01002   0.00402  -0.1590  0.7252  0.4708  -0.8957   0.0000   0.0000   0.0000   0.5137
  -0.900   0.6146   0.00997   0.00403  -0.1591  0.7234  0.4915  -0.9046   0.0000   0.0000   0.0000   0.5088
  -0.800   0.6261   0.00992   0.00403  -0.1592  0.7217  0.5129  -0.9137   0.0000   0.0000   0.0000   0.5040
  -0.700   0.6377   0.00986   0.00402  -0.1592  0.7202  0.5360  -0.9230   0.0000   0.0000   0.0000   0.4993
  -0.600   0.6495   0.00982   0.00402  -0.1593  0.7188  0.5606  -0.9323   0.0000   0.0000   0.0000   0.4947
  -0.500   0.6604   0.00977   0.00405  -0.1593  0.7169  0.5846  -0.9411   0.0000   0.0000   0.0000   0.4905
  -0.400   0.6712   0.00973   0.00409  -0.1592  0.7147  0.6087  -0.9498   0.0000   0.0000   0.0000   0.4863
  -0.300   0.6822   0.00969   0.00411  -0.1592  0.7127  0.6320  -0.9588   0.0000   0.0000   0.0000   0.4822
  -0.200   0.6933   0.00966   0.00413  -0.1591  0.7110  0.6542  -0.9681   0.0000   0.0000   0.0000   0.4782
  -0.100   0.7047   0.00963   0.00413  -0.1591  0.7094  0.6761  -0.9775   0.0000   0.0000   0.0000   0.4743
   0.000   0.7160   0.00961   0.00414  -0.1590  0.7080  0.6966  -0.9869   0.0000   0.0000   0.0000   0.4705
   0.100   0.7261   0.00960   0.00419  -0.1588  0.7056  0.7161  -0.9955   0.0000   0.0000   0.0000   0.4669
   0.200   0.7366   0.00958   0.00423  -0.1586  0.7033  0.7349  -1.0044   0.0000   0.0000   0.0000   0.4634
   0.300   0.7473   0.00957   0.00423  -0.1584  0.7012  0.7520  -1.0134   0.0000   0.0000   0.0000   0.4599
   0.400   0.7581   0.00955   0.00423  -0.1582  0.6994  0.7675  -1.0226   0.0000   0.0000   0.0000   0.4565
   0.500   0.7692   0.00954   0.00422  -0.1581  0.6978  0.7821  -1.0320   0.0000   0.0000   0.0000   0.4532
   0.600   0.7792   0.00954   0.00426  -0.1578  0.6952  0.7953  -1.0406   0.0000   0.0000   0.0000   0.4501
   0.700   0.7893   0.00954   0.00429  -0.1576  0.6928  0.8075  -1.0493   0.0000   0.0000   0.0000   0.4470
   0.800   0.7996   0.00952   0.00429  -0.1573  0.6907  0.8192  -1.0584   0.0000   0.0000   0.0000   0.4439
   0.900   0.8100   0.00951   0.00428  -0.1571  0.6889  0.8309  -1.0688   0.0000   0.0000   0.0000   0.4409
   1.000   0.8205   0.00950   0.00427  -0.1568  0.6873  0.8431  -1.0792   0.0000   0.0000   0.0000   0.4380
   1.100   0.8297   0.00949   0.00431  -0.1563  0.6849  0.8556  -1.0887   0.0000   0.0000   0.0000   0.4352
   1.200   0.8389   0.00948   0.00433  -0.1558  0.6825  0.8687  -1.0982   0.0000   0.0000   0.0000   0.4324
   1.300   0.8479   0.00945   0.00432  -0.1553  0.6804  0.8820  -1.1076   0.0000   0.0000   0.0000   0.4296
   1.500   0.8655   0.00939   0.00427  -0.1540  0.6769  0.9120  -1.1267   0.0000   0.0000   0.0000   0.4241
   1.600   0.8731   0.00934   0.00426  -0.1531  0.6743  0.9315  -1.1355   0.0000   0.0000   0.0000   0.4215
   1.700   0.8835   0.00928   0.00423  -0.1529  0.6717  0.9599  -1.1462   0.0000   0.0000   0.0000   0.4190
   1.800   0.8975   0.00925   0.00418  -0.1535  0.6692  1.0000  -1.1591   0.0000   0.0000   0.0000   0.4168
   1.900   0.9097   0.00927   0.00416  -0.1537  0.6671  1.0000  -1.1710   0.0000   0.0000   0.0000   0.4146
   2.000   0.9213   0.00930   0.00417  -0.1539  0.6645  1.0000  -1.1825   0.0000   0.0000   0.0000   0.4125
   2.100   0.9326   0.00932   0.00419  -0.1539  0.6614  1.0000  -1.1938   0.0000   0.0000   0.0000   0.4105
   2.200   0.9442   0.00934   0.00419  -0.1541  0.6587  1.0000  -1.2065   0.0000   0.0000   0.0000   0.4084
   2.300   0.9561   0.00936   0.00417  -0.1542  0.6564  1.0000  -1.2204   0.0000   0.0000   0.0000   0.4064
   2.400   0.9675   0.00939   0.00420  -0.1543  0.6536  1.0000  -1.2339   0.0000   0.0000   0.0000   0.4045
   2.500   0.9786   0.00942   0.00423  -0.1544  0.6506  1.0000  -1.2472   0.0000   0.0000   0.0000   0.4026
   2.600   0.9901   0.00945   0.00423  -0.1545  0.6480  1.0000  -1.2608   0.0000   0.0000   0.0000   0.4007
   2.700   1.0018   0.00948   0.00423  -0.1546  0.6458  1.0000  -1.2747   0.0000   0.0000   0.0000   0.3989
   2.800   1.0131   0.00952   0.00426  -0.1547  0.6431  1.0000  -1.2883   0.0000   0.0000   0.0000   0.3971
   2.900   1.0240   0.00956   0.00430  -0.1547  0.6401  1.0000  -1.3016   0.0000   0.0000   0.0000   0.3953
   3.000   1.0353   0.00959   0.00432  -0.1547  0.6373  1.0000  -1.3152   0.0000   0.0000   0.0000   0.3936
   3.100   1.0468   0.00963   0.00432  -0.1548  0.6349  1.0000  -1.3291   0.0000   0.0000   0.0000   0.3919
   3.200   1.0577   0.00967   0.00437  -0.1548  0.6317  1.0000  -1.3424   0.0000   0.0000   0.0000   0.3903
   3.300   1.0686   0.00971   0.00440  -0.1548  0.6283  1.0000  -1.3558   0.0000   0.0000   0.0000   0.3886
   3.400   1.0797   0.00975   0.00442  -0.1548  0.6253  1.0000  -1.3695   0.0000   0.0000   0.0000   0.3870
   3.500   1.0908   0.00979   0.00444  -0.1548  0.6223  1.0000  -1.3831   0.0000   0.0000   0.0000   0.3854
   3.600   1.1014   0.00983   0.00449  -0.1548  0.6185  1.0000  -1.3963   0.0000   0.0000   0.0000   0.3839
   3.700   1.1122   0.00988   0.00451  -0.1547  0.6151  1.0000  -1.4099   0.0000   0.0000   0.0000   0.3823
   3.800   1.1233   0.00993   0.00453  -0.1547  0.6121  1.0000  -1.4240   0.0000   0.0000   0.0000   0.3808
   3.900   1.1337   0.00997   0.00459  -0.1546  0.6081  1.0000  -1.4376   0.0000   0.0000   0.0000   0.3793
   4.000   1.1445   0.01002   0.00463  -0.1546  0.6046  1.0000  -1.4525   0.0000   0.0000   0.0000   0.3779
   4.100   1.1555   0.01008   0.00465  -0.1546  0.6017  1.0000  -1.4680   0.0000   0.0000   0.0000   0.3764
   4.200   1.1659   0.01013   0.00472  -0.1545  0.5977  1.0000  -1.4829   0.0000   0.0000   0.0000   0.3750
   4.300   1.1765   0.01019   0.00477  -0.1544  0.5942  1.0000  -1.4986   0.0000   0.0000   0.0000   0.3736
   4.400   1.1873   0.01026   0.00480  -0.1544  0.5912  1.0000  -1.5146   0.0000   0.0000   0.0000   0.3723
   4.500   1.1976   0.01032   0.00487  -0.1543  0.5872  1.0000  -1.5301   0.0000   0.0000   0.0000   0.3709
   4.600   1.2081   0.01038   0.00493  -0.1542  0.5835  1.0000  -1.5458   0.0000   0.0000   0.0000   0.3696
   4.700   1.2187   0.01045   0.00497  -0.1541  0.5803  1.0000  -1.5621   0.0000   0.0000   0.0000   0.3683
   4.800   1.2289   0.01052   0.00505  -0.1540  0.5761  1.0000  -1.5787   0.0000   0.0000   0.0000   0.3670
   4.900   1.2392   0.01059   0.00511  -0.1539  0.5723  1.0000  -1.5953   0.0000   0.0000   0.0000   0.3657
   5.000   1.2496   0.01067   0.00516  -0.1538  0.5688  1.0000  -1.6122   0.0000   0.0000   0.0000   0.3644
   5.100   1.2596   0.01074   0.00524  -0.1536  0.5643  1.0000  -1.6287   0.0000   0.0000   0.0000   0.3632
   5.200   1.2697   0.01082   0.00530  -0.1534  0.5601  1.0000  -1.6453   0.0000   0.0000   0.0000   0.3619
   5.300   1.2797   0.01090   0.00538  -0.1533  0.5558  1.0000  -1.6632   0.0000   0.0000   0.0000   0.3607
   5.400   1.2895   0.01099   0.00545  -0.1531  0.5512  1.0000  -1.6822   0.0000   0.0000   0.0000   0.3595
   5.500   1.2994   0.01109   0.00553  -0.1529  0.5471  1.0000  -1.7018   0.0000   0.0000   0.0000   0.3583
   5.600   1.3092   0.01116   0.00562  -0.1527  0.5423  1.0000  -1.7213   0.0000   0.0000   0.0000   0.3571
   5.700   1.3188   0.01126   0.00570  -0.1525  0.5380  1.0000  -1.7408   0.0000   0.0000   0.0000   0.3560
   5.800   1.3286   0.01136   0.00579  -0.1523  0.5336  1.0000  -1.7604   0.0000   0.0000   0.0000   0.3548
   5.900   1.3382   0.01145   0.00588  -0.1520  0.5291  1.0000  -1.7799   0.0000   0.0000   0.0000   0.3537
   6.000   1.3477   0.01157   0.00597  -0.1518  0.5249  1.0000  -1.7994   0.0000   0.0000   0.0000   0.3525
   6.100   1.3571   0.01166   0.00607  -0.1515  0.5200  1.0000  -1.8188   0.0000   0.0000   0.0000   0.3514
   6.200   1.3664   0.01178   0.00617  -0.1512  0.5155  1.0000  -1.8425   0.0000   0.0000   0.0000   0.3503
   6.300   1.3757   0.01189   0.00628  -0.1510  0.5107  1.0000  -1.8667   0.0000   0.0000   0.0000   0.3492
   6.400   1.3847   0.01201   0.00638  -0.1506  0.5059  1.0000  -1.8907   0.0000   0.0000   0.0000   0.3481
   6.500   1.3937   0.01213   0.00649  -0.1503  0.5010  1.0000  -1.9147   0.0000   0.0000   0.0000   0.3470
   6.600   1.4025   0.01226   0.00661  -0.1499  0.4957  1.0000  -1.9385   0.0000   0.0000   0.0000   0.3459
   6.700   1.4112   0.01239   0.00673  -0.1496  0.4908  1.0000  -1.9623   0.0000   0.0000   0.0000   0.3448
   6.800   1.4198   0.01252   0.00685  -0.1492  0.4854  1.0000  -1.9862   0.0000   0.0000   0.0000   0.3438
   6.900   1.4282   0.01267   0.00697  -0.1488  0.4806  1.0000  -2.0097   0.0000   0.0000   0.0000   0.3427
   7.000   1.4367   0.01280   0.00711  -0.1484  0.4751  1.0000  -2.0336   0.0000   0.0000   0.0000   0.3416
   7.100   1.4448   0.01296   0.00725  -0.1479  0.4702  1.0000  -2.0569   0.0000   0.0000   0.0000   0.3406
   7.200   1.4532   0.01309   0.00738  -0.1475  0.4648  1.0000  -2.0807   0.0000   0.0000   0.0000   0.3395
   7.300   1.4610   0.01326   0.00753  -0.1469  0.4600  1.0000  -2.1038   0.0000   0.0000   0.0000   0.3385
   7.400   1.4691   0.01339   0.00767  -0.1465  0.4545  1.0000  -2.1274   0.0000   0.0000   0.0000   0.3375
   7.500   1.4764   0.01358   0.00782  -0.1459  0.4494  1.0000  -2.1565   0.0000   0.0000   0.0000   0.3364
   7.600   1.4842   0.01373   0.00798  -0.1454  0.4437  1.0000  -2.1864   0.0000   0.0000   0.0000   0.3354
   7.700   1.4910   0.01392   0.00815  -0.1447  0.4384  1.0000  -2.2150   0.0000   0.0000   0.0000   0.3343
   7.800   1.4981   0.01408   0.00831  -0.1441  0.4326  1.0000  -2.2442   0.0000   0.0000   0.0000   0.3333
   7.900   1.5038   0.01429   0.00849  -0.1432  0.4274  1.0000  -2.2713   0.0000   0.0000   0.0000   0.3322
   8.000   1.5105   0.01445   0.00866  -0.1425  0.4217  1.0000  -2.3000   0.0000   0.0000   0.0000   0.3311
   8.100   1.5161   0.01468   0.00886  -0.1416  0.4165  1.0000  -2.3270   0.0000   0.0000   0.0000   0.3300
   8.200   1.5227   0.01486   0.00904  -0.1409  0.4108  1.0000  -2.3558   0.0000   0.0000   0.0000   0.3290
   8.300   1.5281   0.01510   0.00926  -0.1401  0.4057  1.0000  -2.3826   0.0000   0.0000   0.0000   0.3279
   8.400   1.5346   0.01529   0.00946  -0.1394  0.4001  1.0000  -2.4112   0.0000   0.0000   0.0000   0.3269
   8.500   1.5396   0.01555   0.00969  -0.1385  0.3951  1.0000  -2.4377   0.0000   0.0000   0.0000   0.3259
   8.600   1.5458   0.01576   0.00991  -0.1377  0.3895  1.0000  -2.4661   0.0000   0.0000   0.0000   0.3249
   8.700   1.5506   0.01604   0.01016  -0.1368  0.3845  1.0000  -2.4922   0.0000   0.0000   0.0000   0.3238
   8.800   1.5566   0.01627   0.01040  -0.1361  0.3791  1.0000  -2.5203   0.0000   0.0000   0.0000   0.3229
   8.900   1.5612   0.01656   0.01068  -0.1352  0.3743  1.0000  -2.5464   0.0000   0.0000   0.0000   0.3219
   9.000   1.5670   0.01681   0.01093  -0.1344  0.3692  1.0000  -2.5742   0.0000   0.0000   0.0000   0.3209
   9.100   1.5716   0.01712   0.01123  -0.1336  0.3642  1.0000  -2.6028   0.0000   0.0000   0.0000   0.3199
   9.200   1.5769   0.01740   0.01151  -0.1328  0.3589  1.0000  -2.6391   0.0000   0.0000   0.0000   0.3190
   9.300   1.5812   0.01774   0.01183  -0.1319  0.3536  1.0000  -2.6760   0.0000   0.0000   0.0000   0.3180
   9.400   1.5862   0.01805   0.01214  -0.1311  0.3481  1.0000  -2.7149   0.0000   0.0000   0.0000   0.3171
   9.500   1.5900   0.01842   0.01249  -0.1302  0.3427  1.0000  -2.7530   0.0000   0.0000   0.0000   0.3161
   9.600   1.5949   0.01875   0.01282  -0.1295  0.3369  1.0000  -2.7942   0.0000   0.0000   0.0000   0.3152
   9.700   1.5982   0.01917   0.01321  -0.1285  0.3316  1.0000  -2.8314   0.0000   0.0000   0.0000   0.3143
   9.800   1.6030   0.01951   0.01356  -0.1278  0.3258  1.0000  -2.8839   0.0000   0.0000   0.0000   0.3134
   9.900   1.6064   0.01995   0.01398  -0.1269  0.3208  1.0000  -2.9324   0.0000   0.0000   0.0000   0.3125
  10.000   1.6111   0.02031   0.01435  -0.1262  0.3154  1.0000  -2.9857   0.0000   0.0000   0.0000   0.3116
  10.100   1.6144   0.02077   0.01479  -0.1253  0.3106  1.0000  -3.0345   0.0000   0.0000   0.0000   0.3107
  10.200   1.6190   0.02115   0.01518  -0.1246  0.3053  1.0000  -3.0880   0.0000   0.0000   0.0000   0.3099
  10.300   1.6220   0.02164   0.01564  -0.1237  0.3007  1.0000  -3.1367   0.0000   0.0000   0.0000   0.3090
  10.400   1.6266   0.02204   0.01605  -0.1231  0.2954  1.0000  -3.1908   0.0000   0.0000   0.0000   0.3082
  10.500   1.6296   0.02255   0.01654  -0.1222  0.2909  1.0000  -3.2394   0.0000   0.0000   0.0000   0.3074
  10.600   1.6341   0.02296   0.01697  -0.1216  0.2857  1.0000  -3.2939   0.0000   0.0000   0.0000   0.3066
  10.700   1.6369   0.02349   0.01748  -0.1207  0.2812  1.0000  -3.3424   0.0000   0.0000   0.0000   0.3058
  10.800   1.6413   0.02392   0.01793  -0.1201  0.2761  1.0000  -3.3969   0.0000   0.0000   0.0000   0.3050
  11.000   1.6480   0.02494   0.01895  -0.1186  0.2669  1.0000  -3.4992   0.0000   0.0000   0.0000   0.3034
  11.100   1.6502   0.02554   0.01952  -0.1178  0.2625  1.0000  -3.5469   0.0000   0.0000   0.0000   0.3026
  11.200   1.6539   0.02604   0.02003  -0.1171  0.2575  1.0000  -3.5998   0.0000   0.0000   0.0000   0.3018
  11.300   1.6556   0.02668   0.02065  -0.1163  0.2528  1.0000  -3.6460   0.0000   0.0000   0.0000   0.3011
  11.400   1.6590   0.02721   0.02119  -0.1156  0.2476  1.0000  -3.6983   0.0000   0.0000   0.0000   0.3003
  11.500   1.6604   0.02789   0.02185  -0.1148  0.2428  1.0000  -3.7435   0.0000   0.0000   0.0000   0.2996
  11.600   1.6635   0.02846   0.02242  -0.1141  0.2373  1.0000  -3.7954   0.0000   0.0000   0.0000   0.2988
  11.700   1.6652   0.02913   0.02308  -0.1133  0.2324  1.0000  -3.8420   0.0000   0.0000   0.0000   0.2981
  11.800   1.6675   0.02976   0.02371  -0.1126  0.2269  1.0000  -3.8914   0.0000   0.0000   0.0000   0.2974
  11.900   1.6695   0.03042   0.02436  -0.1119  0.2218  1.0000  -3.9398   0.0000   0.0000   0.0000   0.2966
  12.000   1.6708   0.03114   0.02506  -0.1111  0.2167  1.0000  -3.9857   0.0000   0.0000   0.0000   0.2959
  12.100   1.6730   0.03179   0.02572  -0.1104  0.2116  1.0000  -4.0348   0.0000   0.0000   0.0000   0.2952
  12.200   1.6736   0.03257   0.02648  -0.1096  0.2070  1.0000  -4.0783   0.0000   0.0000   0.0000   0.2945
  12.300   1.6760   0.03323   0.02714  -0.1090  0.2019  1.0000  -4.1286   0.0000   0.0000   0.0000   0.2938
  12.400   1.6765   0.03403   0.02793  -0.1082  0.1976  1.0000  -4.1720   0.0000   0.0000   0.0000   0.2931
  12.500   1.6786   0.03473   0.02863  -0.1076  0.1926  1.0000  -4.2214   0.0000   0.0000   0.0000   0.2925
  12.600   1.6793   0.03553   0.02942  -0.1069  0.1883  1.0000  -4.2656   0.0000   0.0000   0.0000   0.2918
  12.700   1.6808   0.03628   0.03018  -0.1062  0.1835  1.0000  -4.3132   0.0000   0.0000   0.0000   0.2912
  12.800   1.6817   0.03709   0.03098  -0.1055  0.1791  1.0000  -4.3585   0.0000   0.0000   0.0000   0.2905
  12.900   1.6828   0.03789   0.03177  -0.1049  0.1744  1.0000  -4.4045   0.0000   0.0000   0.0000   0.2899
  13.000   1.6839   0.03870   0.03258  -0.1042  0.1700  1.0000  -4.4508   0.0000   0.0000   0.0000   0.2892
  13.100   1.6844   0.03957   0.03344  -0.1036  0.1655  1.0000  -4.4947   0.0000   0.0000   0.0000   0.2886
  13.200   1.6856   0.04039   0.03426  -0.1030  0.1611  1.0000  -4.5415   0.0000   0.0000   0.0000   0.2880
  13.300   1.6855   0.04133   0.03519  -0.1023  0.1571  1.0000  -4.5834   0.0000   0.0000   0.0000   0.2874
  13.400   1.6868   0.04216   0.03603  -0.1018  0.1528  1.0000  -4.6306   0.0000   0.0000   0.0000   0.2868
  13.500   1.6864   0.04315   0.03701  -0.1012  0.1491  1.0000  -4.6714   0.0000   0.0000   0.0000   0.2862
  13.600   1.6876   0.04401   0.03788  -0.1006  0.1451  1.0000  -4.7183   0.0000   0.0000   0.0000   0.2857
  13.700   1.6871   0.04503   0.03889  -0.1000  0.1416  1.0000  -4.7586   0.0000   0.0000   0.0000   0.2851
  13.800   1.6883   0.04591   0.03978  -0.0995  0.1377  1.0000  -4.8058   0.0000   0.0000   0.0000   0.2845
  13.900   1.6878   0.04693   0.04080  -0.0989  0.1342  1.0000  -4.8465   0.0000   0.0000   0.0000   0.2840
  14.000   1.6887   0.04785   0.04173  -0.0985  0.1306  1.0000  -4.8927   0.0000   0.0000   0.0000   0.2835
  14.100   1.6883   0.04889   0.04277  -0.0979  0.1273  1.0000  -4.9333   0.0000   0.0000   0.0000   0.2829
  14.200   1.6889   0.04986   0.04375  -0.0975  0.1239  1.0000  -4.9783   0.0000   0.0000   0.0000   0.2824
  14.300   1.6886   0.05092   0.04481  -0.0970  0.1207  1.0000  -5.0195   0.0000   0.0000   0.0000   0.2819
  14.400   1.6886   0.05195   0.04585  -0.0965  0.1177  1.0000  -5.0625   0.0000   0.0000   0.0000   0.2814
  14.500   1.6886   0.05301   0.04692  -0.0961  0.1145  1.0000  -5.1049   0.0000   0.0000   0.0000   0.2809
  14.600   1.6879   0.05414   0.04805  -0.0956  0.1117  1.0000  -5.1445   0.0000   0.0000   0.0000   0.2805
  14.700   1.6882   0.05518   0.04911  -0.0952  0.1087  1.0000  -5.1883   0.0000   0.0000   0.0000   0.2800
  14.800   1.6869   0.05640   0.05033  -0.0948  0.1061  1.0000  -5.2252   0.0000   0.0000   0.0000   0.2795
  14.900   1.6872   0.05745   0.05140  -0.0944  0.1032  1.0000  -5.2695   0.0000   0.0000   0.0000   0.2791
  15.000   1.6864   0.05864   0.05259  -0.0941  0.1006  1.0000  -5.3085   0.0000   0.0000   0.0000   0.2787
  15.100   1.6855   0.05983   0.05380  -0.0937  0.0981  1.0000  -5.3472   0.0000   0.0000   0.0000   0.2782
  15.200   1.6854   0.06095   0.05493  -0.0934  0.0954  1.0000  -5.3894   0.0000   0.0000   0.0000   0.2778
  15.300   1.6835   0.06226   0.05625  -0.0930  0.0932  1.0000  -5.4238   0.0000   0.0000   0.0000   0.2774
  15.400   1.6837   0.06338   0.05739  -0.0927  0.0906  1.0000  -5.4670   0.0000   0.0000   0.0000   0.2770
  15.500   1.6827   0.06462   0.05864  -0.0924  0.0882  1.0000  -5.5055   0.0000   0.0000   0.0000   0.2767
  15.600   1.6810   0.06597   0.06000  -0.0922  0.0862  1.0000  -5.5401   0.0000   0.0000   0.0000   0.2763
  15.700   1.6811   0.06710   0.06116  -0.0919  0.0838  1.0000  -5.5832   0.0000   0.0000   0.0000   0.2759
  15.800   1.6795   0.06846   0.06253  -0.0917  0.0817  1.0000  -5.6186   0.0000   0.0000   0.0000   0.2756
  15.900   1.6782   0.06978   0.06387  -0.0914  0.0798  1.0000  -5.6548   0.0000   0.0000   0.0000   0.2753
  16.000   1.6775   0.07104   0.06515  -0.0912  0.0777  1.0000  -5.6944   0.0000   0.0000   0.0000   0.2749
  16.100   1.6757   0.07245   0.06657  -0.0911  0.0759  1.0000  -5.7281   0.0000   0.0000   0.0000   0.2746
  16.200   1.6739   0.07387   0.06801  -0.0909  0.0742  1.0000  -5.7617   0.0000   0.0000   0.0000   0.2744
  16.300   1.6733   0.07513   0.06930  -0.0907  0.0723  1.0000  -5.8015   0.0000   0.0000   0.0000   0.2741
  16.400   1.6714   0.07657   0.07076  -0.0906  0.0706  1.0000  -5.8344   0.0000   0.0000   0.0000   0.2738
  16.500   1.6685   0.07814   0.07235  -0.0905  0.0692  1.0000  -5.8624   0.0000   0.0000   0.0000   0.2736
  16.600   1.6680   0.07941   0.07366  -0.0904  0.0674  1.0000  -5.9021   0.0000   0.0000   0.0000   0.2733
  16.700   1.6662   0.08086   0.07513  -0.0903  0.0658  1.0000  -5.9352   0.0000   0.0000   0.0000   0.2730
  16.800   1.6632   0.08247   0.07675  -0.0902  0.0645  1.0000  -5.9625   0.0000   0.0000   0.0000   0.2729
  16.900   1.6616   0.08392   0.07824  -0.0902  0.0630  1.0000  -5.9959   0.0000   0.0000   0.0000   0.2726
  17.000   1.6603   0.08533   0.07967  -0.0901  0.0614  1.0000  -6.0314   0.0000   0.0000   0.0000   0.2724
  17.100   1.6579   0.08690   0.08127  -0.0901  0.0600  1.0000  -6.0606   0.0000   0.0000   0.0000   0.2723
  17.200   1.6542   0.08864   0.08302  -0.0902  0.0588  1.0000  -6.0838   0.0000   0.0000   0.0000   0.2721
  17.300   1.6534   0.09003   0.08445  -0.0902  0.0573  1.0000  -6.1206   0.0000   0.0000   0.0000   0.2719
  17.400   1.6514   0.09156   0.08602  -0.0903  0.0559  1.0000  -6.1515   0.0000   0.0000   0.0000   0.2718
  17.500   1.6483   0.09326   0.08773  -0.0904  0.0547  1.0000  -6.1767   0.0000   0.0000   0.0000   0.2717
  17.600   1.6446   0.09507   0.08955  -0.0905  0.0537  1.0000  -6.1982   0.0000   0.0000   0.0000   0.2717
  17.700   1.6437   0.09647   0.09101  -0.0906  0.0522  1.0000  -6.2338   0.0000   0.0000   0.0000   0.2715
  17.800   1.6414   0.09808   0.09264  -0.0907  0.0509  1.0000  -6.2622   0.0000   0.0000   0.0000   0.2714
  17.900   1.6379   0.09985   0.09443  -0.0909  0.0498  1.0000  -6.2845   0.0000   0.0000   0.0000   0.2714
  18.000   1.6341   0.10168   0.09628  -0.0911  0.0488  1.0000  -6.3043   0.0000   0.0000   0.0000   0.2714
  18.100   1.6326   0.10319   0.09784  -0.0913  0.0476  1.0000  -6.3356   0.0000   0.0000   0.0000   0.2713
  18.200   1.6299   0.10487   0.09955  -0.0915  0.0464  1.0000  -6.3611   0.0000   0.0000   0.0000   0.2713
  18.300   1.6263   0.10670   0.10140  -0.0918  0.0455  1.0000  -6.3812   0.0000   0.0000   0.0000   0.2713
  18.400   1.6219   0.10866   0.10338  -0.0921  0.0447  1.0000  -6.3965   0.0000   0.0000   0.0000   0.2714
  18.500   1.6197   0.11032   0.10508  -0.0924  0.0436  1.0000  -6.4225   0.0000   0.0000   0.0000   0.2714
  18.600   1.6173   0.11200   0.10680  -0.0927  0.0425  1.0000  -6.4478   0.0000   0.0000   0.0000   0.2714
  18.700   1.6139   0.11384   0.10867  -0.0931  0.0416  1.0000  -6.4704   0.0000   0.0000   0.0000   0.2715
  18.800   1.6099   0.11578   0.11063  -0.0935  0.0409  1.0000  -6.4923   0.0000   0.0000   0.0000   0.2717
  18.900   1.6049   0.11788   0.11274  -0.0940  0.0402  1.0000  -6.5074   0.0000   0.0000   0.0000   0.2719
  19.000   1.6032   0.11950   0.11441  -0.0943  0.0392  1.0000  -6.5422   0.0000   0.0000   0.0000   0.2720
  19.100   1.6007   0.12123   0.11618  -0.0948  0.0383  1.0000  -6.5723   0.0000   0.0000   0.0000   0.2721
  19.200   1.5975   0.12308   0.11806  -0.0953  0.0375  1.0000  -6.5978   0.0000   0.0000   0.0000   0.2722
  19.300   1.5937   0.12504   0.12005  -0.0958  0.0369  1.0000  -6.6182   0.0000   0.0000   0.0000   0.2725
  19.400   1.5891   0.12712   0.12214  -0.0964  0.0363  1.0000  -6.6335   0.0000   0.0000   0.0000   0.2728
  19.500   1.5859   0.12901   0.12406  -0.0970  0.0356  1.0000  -6.6564   0.0000   0.0000   0.0000   0.2730
  19.600   1.5841   0.13065   0.12576  -0.0975  0.0348  1.0000  -6.6888   0.0000   0.0000   0.0000   0.2731
  19.700   1.5816   0.13241   0.12756  -0.0981  0.0341  1.0000  -6.7166   0.0000   0.0000   0.0000   0.2733
  19.800   1.5787   0.13425   0.12942  -0.0987  0.0335  1.0000  -6.7412   0.0000   0.0000   0.0000   0.2736
  19.900   1.5751   0.13621   0.13140  -0.0994  0.0329  1.0000  -6.7609   0.0000   0.0000   0.0000   0.2739
  20.000   1.5710   0.13824   0.13345  -0.1001  0.0324  1.0000  -6.7768   0.0000   0.0000   0.0000   0.2743


