xflr5 v6.57

 Calculated polar for: rev_root_140

 1 1 Reynolds number fixed          Mach number fixed         

 xtrf =   1.000 (top)        1.000 (bottom)
 Mach =   0.000     Re =     0.460 e 6     Ncrit =   9.000

  alpha     CL        CD       CDp       Cm    Top Xtr Bot Xtr   Cpmin    Chinge    XCp    
 ------- -------- --------- --------- -------- ------- ------- -------- --------- ---------
  -9.800  -0.2382   0.06276   0.05982  -0.1041  0.8578  0.0274  -3.7949   0.0000   0.0000   0.0000  -0.2212
  -9.700  -0.2364   0.06172   0.05878  -0.1049  0.8553  0.0275  -3.7666   0.0000   0.0000   0.0000  -0.2275
  -9.600  -0.2350   0.06038   0.05744  -0.1059  0.8532  0.0276  -3.7539   0.0000   0.0000   0.0000  -0.2345
  -9.500  -0.2336   0.05887   0.05593  -0.1072  0.8507  0.0277  -3.7498   0.0000   0.0000   0.0000  -0.2425
  -9.400  -0.2317   0.05738   0.05443  -0.1086  0.8482  0.0279  -3.7412   0.0000   0.0000   0.0000  -0.2520
  -9.300  -0.2293   0.05595   0.05299  -0.1100  0.8459  0.0280  -3.7265   0.0000   0.0000   0.0000  -0.2631
  -9.200  -0.2261   0.05462   0.05165  -0.1115  0.8440  0.0281  -3.7035   0.0000   0.0000   0.0000  -0.2761
  -9.100  -0.2220   0.05345   0.05049  -0.1129  0.8417  0.0283  -3.6693   0.0000   0.0000   0.0000  -0.2917
  -9.000  -0.2170   0.05259   0.04963  -0.1140  0.8394  0.0286  -3.6207   0.0000   0.0000   0.0000  -0.3090
  -8.900  -0.2113   0.05204   0.04908  -0.1149  0.8373  0.0289  -3.5596   0.0000   0.0000   0.0000  -0.3274
  -8.800  -0.2034   0.05196   0.04898  -0.1154  0.8357  0.0292  -3.4726   0.0000   0.0000   0.0000  -0.3519
  -8.700  -0.1830   0.05565   0.05265  -0.1120  0.8346  0.0304  -3.1958   0.0000   0.0000   0.0000  -0.3990
  -8.600  -0.1729   0.05643   0.05345  -0.1119  0.8325  0.0325  -3.0518   0.0000   0.0000   0.0000  -0.4357
  -8.500  -0.1686   0.05542   0.05243  -0.1133  0.8304  0.0327  -3.0190   0.0000   0.0000   0.0000  -0.4607
  -8.400  -0.1623   0.05454   0.05154  -0.1148  0.8285  0.0331  -2.9713   0.0000   0.0000   0.0000  -0.4963
  -8.300  -0.1537   0.05446   0.05144  -0.1153  0.8269  0.0339  -2.8847   0.0000   0.0000   0.0000  -0.5406
  -8.200  -0.1511   0.04733   0.04427  -0.1285  0.8245  0.0378  -3.0191   0.0000   0.0000   0.0000  -0.6413
  -8.000  -0.1880   0.01919   0.01333  -0.1515  0.8184  0.0284  -4.3797   0.0000   0.0000   0.0000  -0.5915
  -7.900  -0.1772   0.01889   0.01298  -0.1517  0.8172  0.0287  -4.3015   0.0000   0.0000   0.0000  -0.6429
  -7.800  -0.1665   0.01862   0.01268  -0.1518  0.8158  0.0290  -4.2231   0.0000   0.0000   0.0000  -0.7006
  -7.700  -0.1558   0.01835   0.01238  -0.1519  0.8141  0.0294  -4.1455   0.0000   0.0000   0.0000  -0.7656
  -7.600  -0.1451   0.01808   0.01206  -0.1520  0.8125  0.0297  -4.0701   0.0000   0.0000   0.0000  -0.8411
  -7.500  -0.1342   0.01779   0.01171  -0.1521  0.8110  0.0301  -3.9967   0.0000   0.0000   0.0000  -0.9297
  -7.400  -0.1232   0.01750   0.01135  -0.1523  0.8097  0.0305  -3.9249   0.0000   0.0000   0.0000  -1.0352
  -7.300  -0.1121   0.01722   0.01098  -0.1524  0.8085  0.0309  -3.8539   0.0000   0.0000   0.0000  -1.1630
  -7.200  -0.1008   0.01697   0.01064  -0.1525  0.8074  0.0312  -3.7826   0.0000   0.0000   0.0000  -1.3210
  -7.100  -0.0899   0.01674   0.01034  -0.1526  0.8057  0.0314  -3.7167   0.0000   0.0000   0.0000  -1.5120
  -7.000  -0.0794   0.01629   0.00986  -0.1526  0.8041  0.0317  -3.6610   0.0000   0.0000   0.0000  -1.7442
  -6.900  -0.0689   0.01588   0.00945  -0.1527  0.8025  0.0321  -3.5988   0.0000   0.0000   0.0000  -2.0485
  -6.800  -0.0580   0.01560   0.00917  -0.1528  0.8010  0.0324  -3.5308   0.0000   0.0000   0.0000  -2.4798
  -6.700  -0.0469   0.01537   0.00892  -0.1529  0.7997  0.0328  -3.4614   0.0000   0.0000   0.0000  -3.1254
  -6.600  -0.0357   0.01517   0.00869  -0.1530  0.7985  0.0331  -3.3923   0.0000   0.0000   0.0000  -4.1895
  -6.500  -0.0246   0.01497   0.00847  -0.1531  0.7971  0.0336  -3.3250   0.0000   0.0000   0.0000  -6.1962
  -6.400  -0.0136   0.01477   0.00826  -0.1531  0.7954  0.0340  -3.2593   0.0000   0.0000   0.0000  -11.3912
  -6.300  -0.0025   0.01459   0.00805  -0.1532  0.7938  0.0345  -3.1932   0.0000   0.0000   0.0000  -63.5933
  -6.200   0.0088   0.01442   0.00784  -0.1533  0.7924  0.0351  -3.1272   0.0000   0.0000   0.0000  18.2693
  -6.100   0.0202   0.01427   0.00764  -0.1534  0.7910  0.0356  -3.0612   0.0000   0.0000   0.0000   8.0874
  -6.000   0.0317   0.01412   0.00744  -0.1534  0.7898  0.0361  -2.9960   0.0000   0.0000   0.0000   5.2471
  -5.900   0.0427   0.01378   0.00710  -0.1536  0.7887  0.0367  -2.9337   0.0000   0.0000   0.0000   3.9590
  -5.800   0.0537   0.01358   0.00691  -0.1537  0.7872  0.0373  -2.8670   0.0000   0.0000   0.0000   3.1963
  -5.700   0.0648   0.01341   0.00675  -0.1538  0.7855  0.0379  -2.8010   0.0000   0.0000   0.0000   2.6931
  -5.600   0.0760   0.01325   0.00659  -0.1538  0.7839  0.0385  -2.7360   0.0000   0.0000   0.0000   2.3324
  -5.500   0.0873   0.01310   0.00641  -0.1539  0.7825  0.0393  -2.6718   0.0000   0.0000   0.0000   2.0616
  -5.400   0.0988   0.01295   0.00623  -0.1540  0.7812  0.0400  -2.6083   0.0000   0.0000   0.0000   1.8511
  -5.300   0.1105   0.01284   0.00607  -0.1541  0.7800  0.0407  -2.5473   0.0000   0.0000   0.0000   1.6826
  -5.200   0.1219   0.01258   0.00581  -0.1543  0.7789  0.0417  -2.4926   0.0000   0.0000   0.0000   1.5493
  -5.100   0.1331   0.01243   0.00568  -0.1544  0.7775  0.0427  -2.4346   0.0000   0.0000   0.0000   1.4394
  -5.000   0.1444   0.01230   0.00555  -0.1545  0.7759  0.0439  -2.3779   0.0000   0.0000   0.0000   1.3467
  -4.900   0.1558   0.01219   0.00542  -0.1546  0.7744  0.0453  -2.3225   0.0000   0.0000   0.0000   1.2663
  -4.800   0.1672   0.01201   0.00525  -0.1547  0.7729  0.0469  -2.2672   0.0000   0.0000   0.0000   1.1972
  -4.700   0.1788   0.01190   0.00514  -0.1548  0.7716  0.0487  -2.2087   0.0000   0.0000   0.0000   1.1361
  -4.600   0.1905   0.01182   0.00501  -0.1549  0.7704  0.0510  -2.1530   0.0000   0.0000   0.0000   1.0817
  -4.500   0.2022   0.01166   0.00487  -0.1551  0.7693  0.0535  -2.0961   0.0000   0.0000   0.0000   1.0340
  -4.400   0.2137   0.01158   0.00477  -0.1552  0.7679  0.0565  -2.0411   0.0000   0.0000   0.0000   0.9918
  -4.300   0.2250   0.01143   0.00466  -0.1553  0.7662  0.0597  -1.9859   0.0000   0.0000   0.0000   0.9548
  -4.200   0.2364   0.01133   0.00456  -0.1554  0.7646  0.0635  -1.9312   0.0000   0.0000   0.0000   0.9207
  -4.100   0.2479   0.01122   0.00445  -0.1555  0.7631  0.0675  -1.8800   0.0000   0.0000   0.0000   0.8896
  -4.000   0.2595   0.01109   0.00434  -0.1556  0.7616  0.0719  -1.8295   0.0000   0.0000   0.0000   0.8612
  -3.900   0.2712   0.01100   0.00424  -0.1558  0.7604  0.0768  -1.7785   0.0000   0.0000   0.0000   0.8349
  -3.800   0.2831   0.01092   0.00415  -0.1559  0.7592  0.0823  -1.7268   0.0000   0.0000   0.0000   0.8107
  -3.700   0.2944   0.01082   0.00409  -0.1560  0.7576  0.0883  -1.6759   0.0000   0.0000   0.0000   0.7891
  -3.600   0.3057   0.01073   0.00403  -0.1561  0.7558  0.0949  -1.6253   0.0000   0.0000   0.0000   0.7692
  -3.500   0.3171   0.01064   0.00396  -0.1562  0.7541  0.1023  -1.5744   0.0000   0.0000   0.0000   0.7505
  -3.400   0.3287   0.01056   0.00390  -0.1563  0.7526  0.1104  -1.5234   0.0000   0.0000   0.0000   0.7330
  -3.300   0.3404   0.01048   0.00384  -0.1564  0.7513  0.1194  -1.4722   0.0000   0.0000   0.0000   0.7165
  -3.200   0.3521   0.01040   0.00378  -0.1566  0.7500  0.1291  -1.4211   0.0000   0.0000   0.0000   0.7011
  -3.100   0.3640   0.01034   0.00373  -0.1568  0.7489  0.1393  -1.3700   0.0000   0.0000   0.0000   0.6866
  -3.000   0.3752   0.01027   0.00370  -0.1568  0.7471  0.1497  -1.3209   0.0000   0.0000   0.0000   0.6736
  -2.900   0.3865   0.01019   0.00367  -0.1569  0.7454  0.1609  -1.2717   0.0000   0.0000   0.0000   0.6611
  -2.800   0.3980   0.01013   0.00364  -0.1570  0.7438  0.1728  -1.2225   0.0000   0.0000   0.0000   0.6493
  -2.700   0.4096   0.01007   0.00361  -0.1571  0.7423  0.1852  -1.1734   0.0000   0.0000   0.0000   0.6381
  -2.600   0.4213   0.01000   0.00357  -0.1573  0.7410  0.1981  -1.1246   0.0000   0.0000   0.0000   0.6274
  -2.500   0.4331   0.00994   0.00353  -0.1575  0.7397  0.2112  -1.0759   0.0000   0.0000   0.0000   0.6173
  -2.300   0.4560   0.00984   0.00350  -0.1577  0.7366  0.2370  -0.9889   0.0000   0.0000   0.0000   0.5988
  -2.200   0.4674   0.00978   0.00348  -0.1577  0.7347  0.2495  -0.9465   0.0000   0.0000   0.0000   0.5903
  -2.100   0.4789   0.00973   0.00346  -0.1578  0.7330  0.2622  -0.9041   0.0000   0.0000   0.0000   0.5821
  -2.000   0.4905   0.00968   0.00343  -0.1579  0.7314  0.2757  -0.8618   0.0000   0.0000   0.0000   0.5743
  -1.900   0.5023   0.00963   0.00340  -0.1581  0.7300  0.2901  -0.8273   0.0000   0.0000   0.0000   0.5667
  -1.800   0.5142   0.00959   0.00337  -0.1582  0.7287  0.3044  -0.8355   0.0000   0.0000   0.0000   0.5595
  -1.700   0.5253   0.00954   0.00337  -0.1583  0.7266  0.3188  -0.8431   0.0000   0.0000   0.0000   0.5528
  -1.600   0.5366   0.00948   0.00337  -0.1583  0.7246  0.3347  -0.8509   0.0000   0.0000   0.0000   0.5464
  -1.400   0.5597   0.00938   0.00334  -0.1586  0.7212  0.3694  -0.8668   0.0000   0.0000   0.0000   0.5342
  -1.300   0.5714   0.00933   0.00333  -0.1587  0.7198  0.3872  -0.8749   0.0000   0.0000   0.0000   0.5284
  -1.200   0.5833   0.00930   0.00331  -0.1588  0.7185  0.4049  -0.8831   0.0000   0.0000   0.0000   0.5228
  -1.100   0.5945   0.00925   0.00333  -0.1589  0.7167  0.4221  -0.8908   0.0000   0.0000   0.0000   0.5175
  -1.000   0.6057   0.00921   0.00334  -0.1589  0.7147  0.4394  -0.8986   0.0000   0.0000   0.0000   0.5125
  -0.900   0.6172   0.00917   0.00334  -0.1590  0.7128  0.4572  -0.9076   0.0000   0.0000   0.0000   0.5075
  -0.800   0.6287   0.00912   0.00334  -0.1591  0.7111  0.4770  -0.9168   0.0000   0.0000   0.0000   0.5028
  -0.700   0.6404   0.00908   0.00333  -0.1592  0.7096  0.4973  -0.9260   0.0000   0.0000   0.0000   0.4982
  -0.600   0.6521   0.00904   0.00332  -0.1594  0.7082  0.5185  -0.9354   0.0000   0.0000   0.0000   0.4937
  -0.500   0.6632   0.00899   0.00335  -0.1594  0.7063  0.5409  -0.9442   0.0000   0.0000   0.0000   0.4895
  -0.400   0.6743   0.00894   0.00338  -0.1594  0.7042  0.5642  -0.9531   0.0000   0.0000   0.0000   0.4854
  -0.300   0.6856   0.00890   0.00340  -0.1594  0.7023  0.5879  -0.9624   0.0000   0.0000   0.0000   0.4813
  -0.200   0.6969   0.00886   0.00341  -0.1594  0.7005  0.6120  -0.9717   0.0000   0.0000   0.0000   0.4774
  -0.100   0.7083   0.00882   0.00341  -0.1594  0.6988  0.6343  -0.9812   0.0000   0.0000   0.0000   0.4736
   0.000   0.7196   0.00880   0.00343  -0.1594  0.6972  0.6552  -0.9906   0.0000   0.0000   0.0000   0.4699
   0.100   0.7303   0.00877   0.00347  -0.1593  0.6947  0.6765  -0.9995   0.0000   0.0000   0.0000   0.4663
   0.200   0.7411   0.00874   0.00349  -0.1592  0.6924  0.6962  -1.0086   0.0000   0.0000   0.0000   0.4629
   0.300   0.7520   0.00872   0.00351  -0.1591  0.6903  0.7155  -1.0178   0.0000   0.0000   0.0000   0.4594
   0.400   0.7631   0.00871   0.00352  -0.1590  0.6885  0.7337  -1.0271   0.0000   0.0000   0.0000   0.4561
   0.500   0.7742   0.00871   0.00353  -0.1589  0.6868  0.7503  -1.0365   0.0000   0.0000   0.0000   0.4529
   0.600   0.7845   0.00870   0.00357  -0.1587  0.6844  0.7645  -1.0453   0.0000   0.0000   0.0000   0.4498
   0.700   0.7951   0.00869   0.00359  -0.1586  0.6821  0.7778  -1.0543   0.0000   0.0000   0.0000   0.4467
   0.800   0.8059   0.00868   0.00361  -0.1584  0.6801  0.7901  -1.0636   0.0000   0.0000   0.0000   0.4437
   0.900   0.8168   0.00868   0.00361  -0.1583  0.6783  0.8015  -1.0742   0.0000   0.0000   0.0000   0.4408
   1.000   0.8277   0.00868   0.00361  -0.1582  0.6767  0.8126  -1.0849   0.0000   0.0000   0.0000   0.4380
   1.100   0.8378   0.00868   0.00364  -0.1579  0.6744  0.8238  -1.0950   0.0000   0.0000   0.0000   0.4352
   1.200   0.8480   0.00867   0.00367  -0.1577  0.6720  0.8354  -1.1051   0.0000   0.0000   0.0000   0.4325
   1.300   0.8581   0.00866   0.00368  -0.1574  0.6698  0.8473  -1.1153   0.0000   0.0000   0.0000   0.4299
   1.400   0.8682   0.00865   0.00367  -0.1571  0.6677  0.8594  -1.1255   0.0000   0.0000   0.0000   0.4272
   1.500   0.8780   0.00864   0.00366  -0.1567  0.6659  0.8713  -1.1358   0.0000   0.0000   0.0000   0.4246
   1.600   0.8870   0.00861   0.00369  -0.1562  0.6629  0.8841  -1.1456   0.0000   0.0000   0.0000   0.4221
   1.700   0.8959   0.00859   0.00369  -0.1556  0.6602  0.8977  -1.1553   0.0000   0.0000   0.0000   0.4196
   1.800   0.9044   0.00855   0.00367  -0.1549  0.6577  0.9126  -1.1649   0.0000   0.0000   0.0000   0.4171
   1.900   0.9128   0.00852   0.00363  -0.1542  0.6557  0.9308  -1.1745   0.0000   0.0000   0.0000   0.4146
   2.000   0.9226   0.00846   0.00361  -0.1538  0.6526  0.9584  -1.1848   0.0000   0.0000   0.0000   0.4122
   2.100   0.9358   0.00844   0.00359  -0.1543  0.6496  1.0000  -1.1973   0.0000   0.0000   0.0000   0.4102
   2.200   0.9476   0.00847   0.00359  -0.1545  0.6471  1.0000  -1.2104   0.0000   0.0000   0.0000   0.4082
   2.300   0.9594   0.00851   0.00359  -0.1546  0.6450  1.0000  -1.2243   0.0000   0.0000   0.0000   0.4062
   2.400   0.9708   0.00854   0.00363  -0.1547  0.6420  1.0000  -1.2378   0.0000   0.0000   0.0000   0.4043
   2.500   0.9822   0.00857   0.00365  -0.1548  0.6392  1.0000  -1.2513   0.0000   0.0000   0.0000   0.4024
   2.600   0.9937   0.00860   0.00366  -0.1549  0.6366  1.0000  -1.2650   0.0000   0.0000   0.0000   0.4006
   2.700   1.0053   0.00865   0.00367  -0.1551  0.6344  1.0000  -1.2788   0.0000   0.0000   0.0000   0.3988
   2.800   1.0165   0.00868   0.00371  -0.1551  0.6313  1.0000  -1.2923   0.0000   0.0000   0.0000   0.3970
   2.900   1.0277   0.00872   0.00374  -0.1552  0.6281  1.0000  -1.3058   0.0000   0.0000   0.0000   0.3953
   3.000   1.0389   0.00876   0.00376  -0.1552  0.6253  1.0000  -1.3194   0.0000   0.0000   0.0000   0.3935
   3.100   1.0502   0.00881   0.00378  -0.1553  0.6225  1.0000  -1.3331   0.0000   0.0000   0.0000   0.3918
   3.200   1.0611   0.00884   0.00382  -0.1553  0.6188  1.0000  -1.3465   0.0000   0.0000   0.0000   0.3902
   3.300   1.0721   0.00889   0.00385  -0.1553  0.6154  1.0000  -1.3600   0.0000   0.0000   0.0000   0.3886
   3.400   1.0832   0.00894   0.00386  -0.1553  0.6125  1.0000  -1.3737   0.0000   0.0000   0.0000   0.3869
   3.500   1.0940   0.00898   0.00391  -0.1553  0.6085  1.0000  -1.3871   0.0000   0.0000   0.0000   0.3854
   3.600   1.1049   0.00903   0.00395  -0.1553  0.6049  1.0000  -1.4006   0.0000   0.0000   0.0000   0.3838
   3.700   1.1158   0.00909   0.00397  -0.1552  0.6020  1.0000  -1.4142   0.0000   0.0000   0.0000   0.3823
   3.800   1.1266   0.00913   0.00402  -0.1552  0.5981  1.0000  -1.4280   0.0000   0.0000   0.0000   0.3808
   3.900   1.1374   0.00918   0.00407  -0.1552  0.5946  1.0000  -1.4419   0.0000   0.0000   0.0000   0.3793
   4.000   1.1482   0.00925   0.00411  -0.1552  0.5915  1.0000  -1.4569   0.0000   0.0000   0.0000   0.3779
   4.100   1.1589   0.00930   0.00416  -0.1551  0.5879  1.0000  -1.4721   0.0000   0.0000   0.0000   0.3765
   4.200   1.1696   0.00936   0.00421  -0.1551  0.5842  1.0000  -1.4874   0.0000   0.0000   0.0000   0.3751
   4.300   1.1802   0.00943   0.00426  -0.1550  0.5809  1.0000  -1.5032   0.0000   0.0000   0.0000   0.3737
   4.400   1.1908   0.00949   0.00432  -0.1550  0.5771  1.0000  -1.5189   0.0000   0.0000   0.0000   0.3723
   4.500   1.2014   0.00955   0.00437  -0.1549  0.5733  1.0000  -1.5346   0.0000   0.0000   0.0000   0.3710
   4.600   1.2118   0.00963   0.00442  -0.1548  0.5699  1.0000  -1.5503   0.0000   0.0000   0.0000   0.3697
   4.700   1.2223   0.00970   0.00449  -0.1547  0.5659  1.0000  -1.5667   0.0000   0.0000   0.0000   0.3684
   4.800   1.2326   0.00977   0.00456  -0.1546  0.5618  1.0000  -1.5834   0.0000   0.0000   0.0000   0.3671
   4.900   1.2428   0.00986   0.00461  -0.1545  0.5581  1.0000  -1.6000   0.0000   0.0000   0.0000   0.3658
   5.000   1.2531   0.00992   0.00469  -0.1544  0.5534  1.0000  -1.6167   0.0000   0.0000   0.0000   0.3645
   5.100   1.2631   0.01001   0.00475  -0.1542  0.5491  1.0000  -1.6333   0.0000   0.0000   0.0000   0.3633
   5.200   1.2731   0.01010   0.00483  -0.1540  0.5447  1.0000  -1.6499   0.0000   0.0000   0.0000   0.3620
   5.300   1.2831   0.01018   0.00490  -0.1539  0.5401  1.0000  -1.6681   0.0000   0.0000   0.0000   0.3608
   5.400   1.2929   0.01028   0.00498  -0.1537  0.5360  1.0000  -1.6873   0.0000   0.0000   0.0000   0.3596
   5.500   1.3030   0.01036   0.00506  -0.1535  0.5313  1.0000  -1.7071   0.0000   0.0000   0.0000   0.3585
   5.600   1.3127   0.01046   0.00515  -0.1533  0.5270  1.0000  -1.7266   0.0000   0.0000   0.0000   0.3573
   5.700   1.3226   0.01055   0.00523  -0.1531  0.5227  1.0000  -1.7462   0.0000   0.0000   0.0000   0.3561
   5.800   1.3323   0.01065   0.00532  -0.1529  0.5181  1.0000  -1.7658   0.0000   0.0000   0.0000   0.3550
   5.900   1.3417   0.01077   0.00541  -0.1527  0.5138  1.0000  -1.7852   0.0000   0.0000   0.0000   0.3538
   6.000   1.3514   0.01086   0.00551  -0.1525  0.5089  1.0000  -1.8049   0.0000   0.0000   0.0000   0.3527
   6.100   1.3606   0.01099   0.00560  -0.1522  0.5044  1.0000  -1.8248   0.0000   0.0000   0.0000   0.3516
   6.200   1.3701   0.01109   0.00571  -0.1519  0.4994  1.0000  -1.8492   0.0000   0.0000   0.0000   0.3505
   6.300   1.3791   0.01121   0.00582  -0.1516  0.4943  1.0000  -1.8731   0.0000   0.0000   0.0000   0.3494
   6.400   1.3883   0.01133   0.00592  -0.1513  0.4892  1.0000  -1.8973   0.0000   0.0000   0.0000   0.3483
   6.500   1.3972   0.01146   0.00604  -0.1510  0.4840  1.0000  -1.9212   0.0000   0.0000   0.0000   0.3472
   6.600   1.4060   0.01159   0.00615  -0.1506  0.4790  1.0000  -1.9452   0.0000   0.0000   0.0000   0.3461
   6.700   1.4148   0.01171   0.00627  -0.1503  0.4736  1.0000  -1.9692   0.0000   0.0000   0.0000   0.3450
   6.800   1.4235   0.01185   0.00639  -0.1499  0.4686  1.0000  -1.9930   0.0000   0.0000   0.0000   0.3440
   6.900   1.4322   0.01198   0.00651  -0.1495  0.4633  1.0000  -2.0170   0.0000   0.0000   0.0000   0.3429
   7.000   1.4405   0.01213   0.00665  -0.1491  0.4585  1.0000  -2.0405   0.0000   0.0000   0.0000   0.3419
   7.100   1.4491   0.01226   0.00678  -0.1487  0.4531  1.0000  -2.0646   0.0000   0.0000   0.0000   0.3408
   7.200   1.4569   0.01243   0.00692  -0.1482  0.4481  1.0000  -2.0876   0.0000   0.0000   0.0000   0.3398
   7.300   1.4652   0.01257   0.00706  -0.1478  0.4424  1.0000  -2.1114   0.0000   0.0000   0.0000   0.3387
   7.400   1.4725   0.01275   0.00721  -0.1472  0.4371  1.0000  -2.1357   0.0000   0.0000   0.0000   0.3377
   7.500   1.4805   0.01290   0.00736  -0.1467  0.4312  1.0000  -2.1659   0.0000   0.0000   0.0000   0.3367
   7.600   1.4875   0.01309   0.00752  -0.1461  0.4259  1.0000  -2.1948   0.0000   0.0000   0.0000   0.3356
   7.700   1.4948   0.01325   0.00767  -0.1455  0.4201  1.0000  -2.2241   0.0000   0.0000   0.0000   0.3346
   7.800   1.5010   0.01344   0.00784  -0.1447  0.4148  1.0000  -2.2519   0.0000   0.0000   0.0000   0.3335
   7.900   1.5079   0.01361   0.00801  -0.1440  0.4091  1.0000  -2.2809   0.0000   0.0000   0.0000   0.3324
   8.000   1.5141   0.01381   0.00819  -0.1432  0.4038  1.0000  -2.3089   0.0000   0.0000   0.0000   0.3314
   8.100   1.5208   0.01400   0.00837  -0.1426  0.3982  1.0000  -2.3377   0.0000   0.0000   0.0000   0.3303
   8.200   1.5268   0.01421   0.00857  -0.1418  0.3931  1.0000  -2.3656   0.0000   0.0000   0.0000   0.3293
   8.300   1.5332   0.01442   0.00877  -0.1411  0.3875  1.0000  -2.3942   0.0000   0.0000   0.0000   0.3283
   8.400   1.5390   0.01465   0.00898  -0.1403  0.3825  1.0000  -2.4216   0.0000   0.0000   0.0000   0.3272
   8.500   1.5451   0.01487   0.00920  -0.1395  0.3771  1.0000  -2.4500   0.0000   0.0000   0.0000   0.3262
   8.600   1.5505   0.01513   0.00943  -0.1387  0.3724  1.0000  -2.4770   0.0000   0.0000   0.0000   0.3252
   8.700   1.5567   0.01535   0.00966  -0.1380  0.3671  1.0000  -2.5057   0.0000   0.0000   0.0000   0.3242
   8.800   1.5617   0.01563   0.00992  -0.1371  0.3624  1.0000  -2.5321   0.0000   0.0000   0.0000   0.3232
   8.900   1.5679   0.01586   0.01016  -0.1365  0.3569  1.0000  -2.5609   0.0000   0.0000   0.0000   0.3223
   9.000   1.5725   0.01617   0.01044  -0.1356  0.3518  1.0000  -2.5870   0.0000   0.0000   0.0000   0.3213
   9.100   1.5783   0.01643   0.01071  -0.1349  0.3460  1.0000  -2.6199   0.0000   0.0000   0.0000   0.3204
   9.200   1.5828   0.01676   0.01101  -0.1340  0.3407  1.0000  -2.6561   0.0000   0.0000   0.0000   0.3194
   9.300   1.5880   0.01706   0.01130  -0.1332  0.3347  1.0000  -2.6953   0.0000   0.0000   0.0000   0.3185
   9.400   1.5925   0.01740   0.01163  -0.1324  0.3292  1.0000  -2.7348   0.0000   0.0000   0.0000   0.3175
   9.500   1.5970   0.01774   0.01196  -0.1316  0.3236  1.0000  -2.7750   0.0000   0.0000   0.0000   0.3166
   9.600   1.6017   0.01809   0.01230  -0.1308  0.3183  1.0000  -2.8179   0.0000   0.0000   0.0000   0.3157
   9.700   1.6060   0.01847   0.01266  -0.1300  0.3130  1.0000  -2.8692   0.0000   0.0000   0.0000   0.3148
   9.800   1.6107   0.01883   0.01302  -0.1292  0.3079  1.0000  -2.9224   0.0000   0.0000   0.0000   0.3139
   9.900   1.6148   0.01923   0.01340  -0.1284  0.3028  1.0000  -2.9738   0.0000   0.0000   0.0000   0.3130
  10.000   1.6195   0.01960   0.01377  -0.1277  0.2977  1.0000  -3.0273   0.0000   0.0000   0.0000   0.3122
  10.100   1.6234   0.02002   0.01419  -0.1269  0.2927  1.0000  -3.0787   0.0000   0.0000   0.0000   0.3113
  10.200   1.6280   0.02041   0.01457  -0.1262  0.2876  1.0000  -3.1327   0.0000   0.0000   0.0000   0.3105
  10.300   1.6317   0.02086   0.01501  -0.1254  0.2825  1.0000  -3.1839   0.0000   0.0000   0.0000   0.3096
  10.400   1.6363   0.02127   0.01542  -0.1248  0.2774  1.0000  -3.2382   0.0000   0.0000   0.0000   0.3088
  10.500   1.6397   0.02175   0.01588  -0.1240  0.2725  1.0000  -3.2889   0.0000   0.0000   0.0000   0.3080
  10.600   1.6440   0.02219   0.01631  -0.1233  0.2676  1.0000  -3.3430   0.0000   0.0000   0.0000   0.3072
  10.700   1.6470   0.02270   0.01682  -0.1225  0.2629  1.0000  -3.3928   0.0000   0.0000   0.0000   0.3063
  10.800   1.6511   0.02316   0.01727  -0.1218  0.2580  1.0000  -3.4465   0.0000   0.0000   0.0000   0.3056
  10.900   1.6536   0.02372   0.01782  -0.1210  0.2531  1.0000  -3.4952   0.0000   0.0000   0.0000   0.3047
  11.000   1.6575   0.02421   0.01830  -0.1203  0.2478  1.0000  -3.5488   0.0000   0.0000   0.0000   0.3040
  11.100   1.6595   0.02482   0.01889  -0.1194  0.2428  1.0000  -3.5960   0.0000   0.0000   0.0000   0.3032
  11.200   1.6632   0.02533   0.01940  -0.1188  0.2372  1.0000  -3.6495   0.0000   0.0000   0.0000   0.3024
  11.300   1.6655   0.02593   0.01998  -0.1180  0.2320  1.0000  -3.6983   0.0000   0.0000   0.0000   0.3017
  11.400   1.6682   0.02651   0.02055  -0.1172  0.2264  1.0000  -3.7485   0.0000   0.0000   0.0000   0.3009
  11.500   1.6709   0.02710   0.02113  -0.1165  0.2210  1.0000  -3.7990   0.0000   0.0000   0.0000   0.3002
  11.700   1.6755   0.02835   0.02236  -0.1150  0.2104  1.0000  -3.8975   0.0000   0.0000   0.0000   0.2987
  11.800   1.6771   0.02904   0.02302  -0.1143  0.2056  1.0000  -3.9447   0.0000   0.0000   0.0000   0.2979
  11.900   1.6796   0.02966   0.02364  -0.1136  0.2004  1.0000  -3.9952   0.0000   0.0000   0.0000   0.2972
  12.000   1.6815   0.03034   0.02431  -0.1128  0.1958  1.0000  -4.0436   0.0000   0.0000   0.0000   0.2965
  12.100   1.6833   0.03102   0.02499  -0.1121  0.1910  1.0000  -4.0917   0.0000   0.0000   0.0000   0.2958
  12.200   1.6853   0.03170   0.02565  -0.1114  0.1864  1.0000  -4.1408   0.0000   0.0000   0.0000   0.2951
  12.300   1.6865   0.03243   0.02637  -0.1106  0.1819  1.0000  -4.1873   0.0000   0.0000   0.0000   0.2944
  12.400   1.6887   0.03310   0.02704  -0.1100  0.1772  1.0000  -4.2376   0.0000   0.0000   0.0000   0.2937
  12.500   1.6896   0.03388   0.02781  -0.1092  0.1729  1.0000  -4.2827   0.0000   0.0000   0.0000   0.2930
  12.600   1.6919   0.03455   0.02849  -0.1086  0.1681  1.0000  -4.3339   0.0000   0.0000   0.0000   0.2924
  12.700   1.6929   0.03534   0.02927  -0.1079  0.1640  1.0000  -4.3795   0.0000   0.0000   0.0000   0.2917
  12.800   1.6947   0.03607   0.02999  -0.1073  0.1595  1.0000  -4.4291   0.0000   0.0000   0.0000   0.2910
  12.900   1.6956   0.03688   0.03079  -0.1066  0.1556  1.0000  -4.4748   0.0000   0.0000   0.0000   0.2904
  13.000   1.6970   0.03765   0.03157  -0.1059  0.1515  1.0000  -4.5228   0.0000   0.0000   0.0000   0.2898
  13.100   1.6977   0.03849   0.03240  -0.1053  0.1478  1.0000  -4.5679   0.0000   0.0000   0.0000   0.2891
  13.200   1.6989   0.03930   0.03321  -0.1047  0.1439  1.0000  -4.6152   0.0000   0.0000   0.0000   0.2885
  13.300   1.6994   0.04018   0.03408  -0.1040  0.1404  1.0000  -4.6596   0.0000   0.0000   0.0000   0.2879
  13.400   1.7008   0.04099   0.03490  -0.1034  0.1365  1.0000  -4.7083   0.0000   0.0000   0.0000   0.2873
  13.500   1.7012   0.04190   0.03581  -0.1028  0.1331  1.0000  -4.7525   0.0000   0.0000   0.0000   0.2867
  13.600   1.7026   0.04273   0.03664  -0.1023  0.1294  1.0000  -4.8009   0.0000   0.0000   0.0000   0.2861
  13.700   1.7025   0.04369   0.03760  -0.1017  0.1262  1.0000  -4.8437   0.0000   0.0000   0.0000   0.2855
  13.800   1.7040   0.04453   0.03845  -0.1012  0.1226  1.0000  -4.8926   0.0000   0.0000   0.0000   0.2850
  14.000   1.7050   0.04640   0.04033  -0.1001  0.1161  1.0000  -4.9831   0.0000   0.0000   0.0000   0.2839
  14.100   1.7047   0.04743   0.04135  -0.0995  0.1130  1.0000  -5.0246   0.0000   0.0000   0.0000   0.2833
  14.200   1.7054   0.04836   0.04229  -0.0991  0.1099  1.0000  -5.0711   0.0000   0.0000   0.0000   0.2828
  14.300   1.7052   0.04939   0.04332  -0.0985  0.1070  1.0000  -5.1134   0.0000   0.0000   0.0000   0.2823
  14.400   1.7054   0.05040   0.04434  -0.0981  0.1042  1.0000  -5.1572   0.0000   0.0000   0.0000   0.2818
  14.500   1.7056   0.05141   0.04535  -0.0976  0.1012  1.0000  -5.2016   0.0000   0.0000   0.0000   0.2813
  14.600   1.7049   0.05253   0.04648  -0.0971  0.0987  1.0000  -5.2417   0.0000   0.0000   0.0000   0.2808
  14.700   1.7057   0.05350   0.04747  -0.0967  0.0958  1.0000  -5.2887   0.0000   0.0000   0.0000   0.2803
  14.800   1.7049   0.05465   0.04862  -0.0963  0.0934  1.0000  -5.3284   0.0000   0.0000   0.0000   0.2798
  14.900   1.7054   0.05567   0.04966  -0.0959  0.0908  1.0000  -5.3741   0.0000   0.0000   0.0000   0.2794
  15.000   1.7052   0.05678   0.05077  -0.0955  0.0883  1.0000  -5.4165   0.0000   0.0000   0.0000   0.2789
  15.100   1.7044   0.05796   0.05196  -0.0951  0.0861  1.0000  -5.4563   0.0000   0.0000   0.0000   0.2785
  15.200   1.7049   0.05900   0.05302  -0.0948  0.0837  1.0000  -5.5022   0.0000   0.0000   0.0000   0.2780
  15.300   1.7040   0.06019   0.05422  -0.0944  0.0816  1.0000  -5.5418   0.0000   0.0000   0.0000   0.2776
  15.400   1.7035   0.06135   0.05539  -0.0941  0.0796  1.0000  -5.5829   0.0000   0.0000   0.0000   0.2772
  15.500   1.7033   0.06249   0.05655  -0.0938  0.0775  1.0000  -5.6253   0.0000   0.0000   0.0000   0.2768
  15.600   1.7021   0.06375   0.05782  -0.0935  0.0757  1.0000  -5.6634   0.0000   0.0000   0.0000   0.2764
  15.700   1.7014   0.06497   0.05906  -0.0932  0.0739  1.0000  -5.7032   0.0000   0.0000   0.0000   0.2760
  15.800   1.7012   0.06613   0.06025  -0.0929  0.0720  1.0000  -5.7458   0.0000   0.0000   0.0000   0.2756
  15.900   1.6998   0.06745   0.06158  -0.0927  0.0703  1.0000  -5.7827   0.0000   0.0000   0.0000   0.2753
  16.000   1.6986   0.06875   0.06290  -0.0924  0.0687  1.0000  -5.8203   0.0000   0.0000   0.0000   0.2750
  16.100   1.6983   0.06996   0.06413  -0.0922  0.0669  1.0000  -5.8621   0.0000   0.0000   0.0000   0.2746
  16.200   1.6968   0.07131   0.06551  -0.0920  0.0653  1.0000  -5.8984   0.0000   0.0000   0.0000   0.2743
  16.300   1.6944   0.07279   0.06700  -0.0918  0.0639  1.0000  -5.9301   0.0000   0.0000   0.0000   0.2740
  16.400   1.6945   0.07397   0.06821  -0.0917  0.0622  1.0000  -5.9737   0.0000   0.0000   0.0000   0.2737
  16.500   1.6934   0.07530   0.06957  -0.0915  0.0606  1.0000  -6.0114   0.0000   0.0000   0.0000   0.2734
  16.600   1.6911   0.07679   0.07107  -0.0914  0.0592  1.0000  -6.0431   0.0000   0.0000   0.0000   0.2731
  16.700   1.6899   0.07814   0.07245  -0.0912  0.0578  1.0000  -6.0802   0.0000   0.0000   0.0000   0.2728
  16.800   1.6887   0.07950   0.07384  -0.0911  0.0563  1.0000  -6.1171   0.0000   0.0000   0.0000   0.2726
  16.900   1.6866   0.08097   0.07533  -0.0910  0.0550  1.0000  -6.1498   0.0000   0.0000   0.0000   0.2723
  17.000   1.6835   0.08260   0.07697  -0.0910  0.0539  1.0000  -6.1767   0.0000   0.0000   0.0000   0.2722
  17.100   1.6830   0.08390   0.07831  -0.0909  0.0524  1.0000  -6.2166   0.0000   0.0000   0.0000   0.2719
  17.200   1.6813   0.08536   0.07980  -0.0909  0.0510  1.0000  -6.2507   0.0000   0.0000   0.0000   0.2717
  17.300   1.6787   0.08695   0.08140  -0.0909  0.0498  1.0000  -6.2800   0.0000   0.0000   0.0000   0.2715
  17.400   1.6759   0.08859   0.08307  -0.0909  0.0487  1.0000  -6.3076   0.0000   0.0000   0.0000   0.2714
  17.500   1.6747   0.09000   0.08452  -0.0909  0.0474  1.0000  -6.3436   0.0000   0.0000   0.0000   0.2712
  17.600   1.6724   0.09158   0.08612  -0.0910  0.0462  1.0000  -6.3737   0.0000   0.0000   0.0000   0.2710
  17.700   1.6692   0.09328   0.08784  -0.0911  0.0452  1.0000  -6.3989   0.0000   0.0000   0.0000   0.2709
  17.800   1.6658   0.09504   0.08962  -0.0912  0.0443  1.0000  -6.4225   0.0000   0.0000   0.0000   0.2709
  17.900   1.6642   0.09653   0.09115  -0.0913  0.0431  1.0000  -6.4557   0.0000   0.0000   0.0000   0.2707
  18.000   1.6616   0.09817   0.09283  -0.0914  0.0420  1.0000  -6.4832   0.0000   0.0000   0.0000   0.2706
  18.100   1.6581   0.09995   0.09463  -0.0916  0.0411  1.0000  -6.5055   0.0000   0.0000   0.0000   0.2706
  18.200   1.6537   0.10185   0.09655  -0.0918  0.0404  1.0000  -6.5227   0.0000   0.0000   0.0000   0.2706
  18.300   1.6514   0.10347   0.09821  -0.0920  0.0394  1.0000  -6.5508   0.0000   0.0000   0.0000   0.2706
  18.400   1.6490   0.10511   0.09989  -0.0922  0.0384  1.0000  -6.5779   0.0000   0.0000   0.0000   0.2705
  18.500   1.6458   0.10687   0.10168  -0.0925  0.0376  1.0000  -6.6005   0.0000   0.0000   0.0000   0.2705
  18.600   1.6418   0.10877   0.10360  -0.0928  0.0369  1.0000  -6.6227   0.0000   0.0000   0.0000   0.2706
  18.700   1.6371   0.11076   0.10561  -0.0932  0.0362  1.0000  -6.6424   0.0000   0.0000   0.0000   0.2708
  18.800   1.6345   0.11248   0.10737  -0.0935  0.0354  1.0000  -6.6740   0.0000   0.0000   0.0000   0.2708
  18.900   1.6325   0.11412   0.10906  -0.0938  0.0346  1.0000  -6.7092   0.0000   0.0000   0.0000   0.2708
  19.000   1.6294   0.11591   0.11088  -0.0942  0.0338  1.0000  -6.7378   0.0000   0.0000   0.0000   0.2709
  19.100   1.6259   0.11778   0.11278  -0.0946  0.0332  1.0000  -6.7630   0.0000   0.0000   0.0000   0.2710
  19.200   1.6216   0.11978   0.11481  -0.0951  0.0326  1.0000  -6.7827   0.0000   0.0000   0.0000   0.2712
  19.300   1.6167   0.12189   0.11693  -0.0956  0.0321  1.0000  -6.7978   0.0000   0.0000   0.0000   0.2715
  19.400   1.6152   0.12348   0.11857  -0.0960  0.0314  1.0000  -6.8344   0.0000   0.0000   0.0000   0.2715
  19.500   1.6130   0.12518   0.12031  -0.0965  0.0307  1.0000  -6.8671   0.0000   0.0000   0.0000   0.2716
  19.600   1.6101   0.12700   0.12217  -0.0970  0.0301  1.0000  -6.8941   0.0000   0.0000   0.0000   0.2718
  19.700   1.6067   0.12889   0.12408  -0.0976  0.0295  1.0000  -6.9180   0.0000   0.0000   0.0000   0.2720
  19.800   1.6027   0.13088   0.12610  -0.0982  0.0291  1.0000  -6.9370   0.0000   0.0000   0.0000   0.2723
  19.900   1.5982   0.13296   0.12820  -0.0989  0.0286  1.0000  -6.9517   0.0000   0.0000   0.0000   0.2726
  20.000   1.5950   0.13485   0.13012  -0.0995  0.0281  1.0000  -6.9750   0.0000   0.0000   0.0000   0.2729


