xflr5 v6.57

 Calculated polar for: rev_root_140

 1 1 Reynolds number fixed          Mach number fixed         

 xtrf =   1.000 (top)        1.000 (bottom)
 Mach =   0.000     Re =     1.000 e 6     Ncrit =   9.000

  alpha     CL        CD       CDp       Cm    Top Xtr Bot Xtr   Cpmin    Chinge    XCp    
 ------- -------- --------- --------- -------- ------- ------- -------- --------- ---------
 -10.000  -0.4151   0.01767   0.01291  -0.1478  0.8023  0.0177  -6.6824   0.0000   0.0000   0.0000  -0.1285
  -9.900  -0.4045   0.01743   0.01264  -0.1480  0.8007  0.0179  -6.5750   0.0000   0.0000   0.0000  -0.1384
  -9.800  -0.3938   0.01721   0.01237  -0.1482  0.7993  0.0180  -6.4678   0.0000   0.0000   0.0000  -0.1490
  -9.700  -0.3832   0.01699   0.01211  -0.1483  0.7980  0.0182  -6.3613   0.0000   0.0000   0.0000  -0.1601
  -9.600  -0.3724   0.01676   0.01185  -0.1485  0.7964  0.0184  -6.2554   0.0000   0.0000   0.0000  -0.1721
  -9.500  -0.3615   0.01654   0.01160  -0.1486  0.7947  0.0186  -6.1504   0.0000   0.0000   0.0000  -0.1848
  -9.400  -0.3507   0.01631   0.01133  -0.1488  0.7932  0.0188  -6.0467   0.0000   0.0000   0.0000  -0.1983
  -9.300  -0.3399   0.01608   0.01106  -0.1489  0.7917  0.0190  -5.9445   0.0000   0.0000   0.0000  -0.2126
  -9.200  -0.3291   0.01585   0.01079  -0.1491  0.7903  0.0191  -5.8437   0.0000   0.0000   0.0000  -0.2278
  -9.100  -0.3182   0.01563   0.01052  -0.1492  0.7890  0.0193  -5.7437   0.0000   0.0000   0.0000  -0.2441
  -9.000  -0.3073   0.01542   0.01026  -0.1494  0.7877  0.0194  -5.6435   0.0000   0.0000   0.0000  -0.2617
  -8.900  -0.2962   0.01521   0.01002  -0.1495  0.7862  0.0195  -5.5428   0.0000   0.0000   0.0000  -0.2809
  -8.800  -0.2851   0.01503   0.00981  -0.1496  0.7847  0.0196  -5.4419   0.0000   0.0000   0.0000  -0.3016
  -8.700  -0.2740   0.01487   0.00961  -0.1497  0.7832  0.0197  -5.3406   0.0000   0.0000   0.0000  -0.3240
  -8.600  -0.2632   0.01457   0.00926  -0.1499  0.7818  0.0199  -5.2476   0.0000   0.0000   0.0000  -0.3477
  -8.500  -0.2531   0.01399   0.00862  -0.1501  0.7805  0.0202  -5.1694   0.0000   0.0000   0.0000  -0.3719
  -8.400  -0.2424   0.01366   0.00826  -0.1503  0.7793  0.0204  -5.0776   0.0000   0.0000   0.0000  -0.3996
  -8.300  -0.2314   0.01343   0.00800  -0.1505  0.7781  0.0206  -4.9880   0.0000   0.0000   0.0000  -0.4306
  -8.200  -0.2203   0.01322   0.00779  -0.1506  0.7767  0.0208  -4.8965   0.0000   0.0000   0.0000  -0.4652
  -8.100  -0.2091   0.01305   0.00760  -0.1507  0.7753  0.0210  -4.8047   0.0000   0.0000   0.0000  -0.5036
  -8.000  -0.1978   0.01288   0.00742  -0.1509  0.7739  0.0212  -4.7133   0.0000   0.0000   0.0000  -0.5465
  -7.900  -0.1866   0.01272   0.00724  -0.1510  0.7726  0.0214  -4.6225   0.0000   0.0000   0.0000  -0.5946
  -7.800  -0.1753   0.01257   0.00707  -0.1511  0.7713  0.0216  -4.5326   0.0000   0.0000   0.0000  -0.6489
  -7.700  -0.1640   0.01243   0.00689  -0.1512  0.7700  0.0218  -4.4437   0.0000   0.0000   0.0000  -0.7106
  -7.600  -0.1527   0.01229   0.00672  -0.1513  0.7688  0.0220  -4.3628   0.0000   0.0000   0.0000  -0.7817
  -7.500  -0.1414   0.01214   0.00655  -0.1514  0.7673  0.0222  -4.2825   0.0000   0.0000   0.0000  -0.8646
  -7.400  -0.1300   0.01199   0.00639  -0.1516  0.7658  0.0225  -4.2027   0.0000   0.0000   0.0000  -0.9621
  -7.300  -0.1186   0.01186   0.00624  -0.1517  0.7643  0.0227  -4.1228   0.0000   0.0000   0.0000  -1.0786
  -7.200  -0.1072   0.01174   0.00609  -0.1518  0.7630  0.0229  -4.0427   0.0000   0.0000   0.0000  -1.2200
  -7.100  -0.0958   0.01164   0.00596  -0.1519  0.7617  0.0231  -3.9625   0.0000   0.0000   0.0000  -1.3955
  -7.000  -0.0843   0.01155   0.00584  -0.1520  0.7605  0.0233  -3.8825   0.0000   0.0000   0.0000  -1.6191
  -6.900  -0.0730   0.01135   0.00561  -0.1521  0.7593  0.0236  -3.8092   0.0000   0.0000   0.0000  -1.9086
  -6.800  -0.0618   0.01110   0.00534  -0.1523  0.7580  0.0240  -3.7377   0.0000   0.0000   0.0000  -2.3034
  -6.700  -0.0504   0.01092   0.00516  -0.1524  0.7566  0.0243  -3.6616   0.0000   0.0000   0.0000  -2.8829
  -6.600  -0.0389   0.01079   0.00502  -0.1526  0.7552  0.0246  -3.5841   0.0000   0.0000   0.0000  -3.8077
  -6.500  -0.0274   0.01067   0.00489  -0.1527  0.7539  0.0249  -3.5066   0.0000   0.0000   0.0000  -5.5119
  -6.400  -0.0159   0.01057   0.00477  -0.1528  0.7526  0.0252  -3.4296   0.0000   0.0000   0.0000  -9.6909
  -6.300  -0.0044   0.01047   0.00465  -0.1529  0.7514  0.0255  -3.3533   0.0000   0.0000   0.0000  -35.9995
  -6.200   0.0072   0.01038   0.00454  -0.1530  0.7502  0.0258  -3.2778   0.0000   0.0000   0.0000  22.2259
  -6.100   0.0187   0.01029   0.00443  -0.1531  0.7492  0.0262  -3.2030   0.0000   0.0000   0.0000   8.6736
  -6.000   0.0303   0.01020   0.00432  -0.1532  0.7480  0.0265  -3.1287   0.0000   0.0000   0.0000   5.4557
  -5.900   0.0419   0.01011   0.00422  -0.1533  0.7466  0.0268  -3.0550   0.0000   0.0000   0.0000   4.0158
  -5.800   0.0535   0.01003   0.00412  -0.1534  0.7453  0.0271  -2.9814   0.0000   0.0000   0.0000   3.1994
  -5.700   0.0651   0.00990   0.00399  -0.1535  0.7440  0.0276  -2.9102   0.0000   0.0000   0.0000   2.6758
  -5.600   0.0767   0.00976   0.00383  -0.1537  0.7427  0.0282  -2.8395   0.0000   0.0000   0.0000   2.3110
  -5.500   0.0882   0.00966   0.00373  -0.1538  0.7414  0.0288  -2.7670   0.0000   0.0000   0.0000   2.0409
  -5.400   0.0998   0.00959   0.00365  -0.1539  0.7403  0.0294  -2.6991   0.0000   0.0000   0.0000   1.8331
  -5.300   0.1114   0.00953   0.00356  -0.1540  0.7391  0.0300  -2.6346   0.0000   0.0000   0.0000   1.6682
  -5.200   0.1231   0.00946   0.00348  -0.1541  0.7379  0.0306  -2.5710   0.0000   0.0000   0.0000   1.5342
  -5.100   0.1347   0.00939   0.00340  -0.1542  0.7364  0.0312  -2.5079   0.0000   0.0000   0.0000   1.4233
  -5.000   0.1463   0.00928   0.00329  -0.1543  0.7350  0.0320  -2.4470   0.0000   0.0000   0.0000   1.3303
  -4.900   0.1580   0.00917   0.00318  -0.1545  0.7335  0.0331  -2.3851   0.0000   0.0000   0.0000   1.2511
  -4.800   0.1696   0.00909   0.00310  -0.1546  0.7321  0.0342  -2.3227   0.0000   0.0000   0.0000   1.1826
  -4.700   0.1812   0.00904   0.00303  -0.1546  0.7308  0.0355  -2.2614   0.0000   0.0000   0.0000   1.1227
  -4.600   0.1928   0.00895   0.00293  -0.1548  0.7296  0.0372  -2.2017   0.0000   0.0000   0.0000   1.0703
  -4.500   0.2045   0.00887   0.00285  -0.1549  0.7283  0.0392  -2.1409   0.0000   0.0000   0.0000   1.0237
  -4.400   0.2161   0.00879   0.00278  -0.1550  0.7269  0.0414  -2.0812   0.0000   0.0000   0.0000   0.9821
  -4.300   0.2278   0.00870   0.00270  -0.1551  0.7254  0.0443  -2.0210   0.0000   0.0000   0.0000   0.9448
  -4.200   0.2394   0.00862   0.00264  -0.1552  0.7240  0.0474  -1.9655   0.0000   0.0000   0.0000   0.9111
  -4.100   0.2511   0.00856   0.00258  -0.1553  0.7226  0.0508  -1.9108   0.0000   0.0000   0.0000   0.8805
  -4.000   0.2627   0.00849   0.00253  -0.1555  0.7213  0.0544  -1.8561   0.0000   0.0000   0.0000   0.8527
  -3.900   0.2743   0.00844   0.00248  -0.1556  0.7201  0.0581  -1.8018   0.0000   0.0000   0.0000   0.8272
  -3.800   0.2860   0.00840   0.00243  -0.1557  0.7189  0.0621  -1.7475   0.0000   0.0000   0.0000   0.8038
  -3.700   0.2977   0.00834   0.00238  -0.1558  0.7177  0.0661  -1.6937   0.0000   0.0000   0.0000   0.7822
  -3.600   0.3093   0.00828   0.00233  -0.1559  0.7163  0.0702  -1.6401   0.0000   0.0000   0.0000   0.7622
  -3.500   0.3210   0.00822   0.00229  -0.1560  0.7149  0.0748  -1.5869   0.0000   0.0000   0.0000   0.7437
  -3.400   0.3327   0.00815   0.00225  -0.1562  0.7134  0.0800  -1.5340   0.0000   0.0000   0.0000   0.7265
  -3.300   0.3443   0.00809   0.00220  -0.1563  0.7120  0.0859  -1.4815   0.0000   0.0000   0.0000   0.7104
  -3.200   0.3559   0.00804   0.00217  -0.1564  0.7106  0.0922  -1.4295   0.0000   0.0000   0.0000   0.6954
  -3.100   0.3675   0.00800   0.00213  -0.1565  0.7092  0.0989  -1.3779   0.0000   0.0000   0.0000   0.6814
  -3.000   0.3792   0.00796   0.00209  -0.1566  0.7078  0.1058  -1.3268   0.0000   0.0000   0.0000   0.6682
  -2.900   0.3908   0.00790   0.00206  -0.1567  0.7062  0.1131  -1.2761   0.0000   0.0000   0.0000   0.6558
  -2.800   0.4025   0.00784   0.00203  -0.1568  0.7045  0.1212  -1.2258   0.0000   0.0000   0.0000   0.6442
  -2.700   0.4141   0.00778   0.00201  -0.1570  0.7028  0.1298  -1.1760   0.0000   0.0000   0.0000   0.6331
  -2.600   0.4257   0.00774   0.00198  -0.1571  0.7013  0.1385  -1.1266   0.0000   0.0000   0.0000   0.6227
  -2.500   0.4373   0.00769   0.00195  -0.1572  0.6999  0.1475  -1.0778   0.0000   0.0000   0.0000   0.6128
  -2.400   0.4490   0.00765   0.00193  -0.1573  0.6985  0.1566  -1.0317   0.0000   0.0000   0.0000   0.6035
  -2.300   0.4606   0.00762   0.00191  -0.1574  0.6972  0.1669  -0.9879   0.0000   0.0000   0.0000   0.5946
  -2.200   0.4723   0.00756   0.00190  -0.1576  0.6956  0.1779  -0.9444   0.0000   0.0000   0.0000   0.5862
  -2.100   0.4839   0.00751   0.00188  -0.1577  0.6940  0.1890  -0.9013   0.0000   0.0000   0.0000   0.5781
  -2.000   0.4956   0.00746   0.00187  -0.1578  0.6924  0.2002  -0.8586   0.0000   0.0000   0.0000   0.5704
  -1.900   0.5072   0.00741   0.00185  -0.1579  0.6908  0.2119  -0.8337   0.0000   0.0000   0.0000   0.5631
  -1.700   0.5305   0.00734   0.00182  -0.1582  0.6878  0.2370  -0.8497   0.0000   0.0000   0.0000   0.5495
  -1.600   0.5421   0.00731   0.00182  -0.1583  0.6864  0.2478  -0.8577   0.0000   0.0000   0.0000   0.5431
  -1.500   0.5538   0.00727   0.00181  -0.1584  0.6846  0.2582  -0.8657   0.0000   0.0000   0.0000   0.5369
  -1.400   0.5654   0.00722   0.00180  -0.1585  0.6829  0.2695  -0.8738   0.0000   0.0000   0.0000   0.5310
  -1.300   0.5771   0.00718   0.00179  -0.1587  0.6811  0.2827  -0.8818   0.0000   0.0000   0.0000   0.5254
  -1.200   0.5887   0.00715   0.00179  -0.1588  0.6794  0.2961  -0.8898   0.0000   0.0000   0.0000   0.5200
  -1.100   0.6002   0.00712   0.00178  -0.1589  0.6778  0.3088  -0.8978   0.0000   0.0000   0.0000   0.5147
  -1.000   0.6118   0.00710   0.00177  -0.1590  0.6760  0.3222  -0.9059   0.0000   0.0000   0.0000   0.5097
  -0.900   0.6234   0.00705   0.00178  -0.1591  0.6739  0.3376  -0.9145   0.0000   0.0000   0.0000   0.5049
  -0.800   0.6351   0.00701   0.00177  -0.1592  0.6718  0.3532  -0.9237   0.0000   0.0000   0.0000   0.5002
  -0.700   0.6466   0.00697   0.00177  -0.1593  0.6697  0.3683  -0.9329   0.0000   0.0000   0.0000   0.4957
  -0.600   0.6581   0.00694   0.00177  -0.1594  0.6678  0.3826  -0.9421   0.0000   0.0000   0.0000   0.4914
  -0.500   0.6696   0.00693   0.00177  -0.1595  0.6661  0.3977  -0.9513   0.0000   0.0000   0.0000   0.4872
  -0.400   0.6813   0.00689   0.00178  -0.1596  0.6641  0.4139  -0.9608   0.0000   0.0000   0.0000   0.4831
  -0.300   0.6930   0.00685   0.00179  -0.1598  0.6620  0.4301  -0.9703   0.0000   0.0000   0.0000   0.4792
  -0.200   0.7046   0.00682   0.00179  -0.1599  0.6600  0.4464  -0.9799   0.0000   0.0000   0.0000   0.4754
  -0.100   0.7161   0.00679   0.00180  -0.1600  0.6581  0.4629  -0.9893   0.0000   0.0000   0.0000   0.4718
   0.000   0.7276   0.00678   0.00181  -0.1601  0.6564  0.4791  -0.9988   0.0000   0.0000   0.0000   0.4682
   0.100   0.7391   0.00675   0.00182  -0.1602  0.6546  0.4965  -1.0083   0.0000   0.0000   0.0000   0.4647
   0.200   0.7508   0.00671   0.00183  -0.1603  0.6524  0.5161  -1.0179   0.0000   0.0000   0.0000   0.4614
   0.300   0.7624   0.00667   0.00185  -0.1604  0.6502  0.5376  -1.0275   0.0000   0.0000   0.0000   0.4582
   0.400   0.7738   0.00665   0.00186  -0.1605  0.6479  0.5589  -1.0370   0.0000   0.0000   0.0000   0.4550
   0.500   0.7852   0.00663   0.00188  -0.1606  0.6457  0.5780  -1.0464   0.0000   0.0000   0.0000   0.4520
   0.600   0.7966   0.00661   0.00190  -0.1606  0.6433  0.5979  -1.0559   0.0000   0.0000   0.0000   0.4490
   0.700   0.8081   0.00658   0.00192  -0.1607  0.6405  0.6192  -1.0655   0.0000   0.0000   0.0000   0.4461
   0.800   0.8195   0.00656   0.00195  -0.1608  0.6377  0.6398  -1.0750   0.0000   0.0000   0.0000   0.4432
   0.900   0.8306   0.00655   0.00197  -0.1608  0.6352  0.6599  -1.0856   0.0000   0.0000   0.0000   0.4405
   1.000   0.8419   0.00655   0.00200  -0.1608  0.6327  0.6792  -1.0965   0.0000   0.0000   0.0000   0.4378
   1.100   0.8533   0.00653   0.00203  -0.1609  0.6299  0.6965  -1.1075   0.0000   0.0000   0.0000   0.4351
   1.200   0.8646   0.00653   0.00206  -0.1609  0.6272  0.7127  -1.1183   0.0000   0.0000   0.0000   0.4326
   1.300   0.8757   0.00654   0.00209  -0.1609  0.6248  0.7274  -1.1292   0.0000   0.0000   0.0000   0.4301
   1.400   0.8869   0.00656   0.00211  -0.1609  0.6225  0.7400  -1.1401   0.0000   0.0000   0.0000   0.4276
   1.500   0.8982   0.00656   0.00214  -0.1609  0.6198  0.7510  -1.1514   0.0000   0.0000   0.0000   0.4252
   1.600   0.9095   0.00657   0.00217  -0.1609  0.6171  0.7615  -1.1626   0.0000   0.0000   0.0000   0.4229
   1.700   0.9205   0.00659   0.00220  -0.1609  0.6145  0.7718  -1.1737   0.0000   0.0000   0.0000   0.4206
   1.800   0.9314   0.00661   0.00223  -0.1609  0.6120  0.7822  -1.1849   0.0000   0.0000   0.0000   0.4184
   1.900   0.9427   0.00661   0.00225  -0.1609  0.6091  0.7922  -1.1961   0.0000   0.0000   0.0000   0.4162
   2.000   0.9537   0.00663   0.00228  -0.1608  0.6059  0.8019  -1.2073   0.0000   0.0000   0.0000   0.4140
   2.100   0.9644   0.00666   0.00231  -0.1607  0.6028  0.8115  -1.2199   0.0000   0.0000   0.0000   0.4119
   2.200   0.9753   0.00667   0.00234  -0.1607  0.5994  0.8210  -1.2331   0.0000   0.0000   0.0000   0.4099
   2.300   0.9861   0.00669   0.00238  -0.1606  0.5957  0.8303  -1.2463   0.0000   0.0000   0.0000   0.4079
   2.400   0.9967   0.00672   0.00241  -0.1605  0.5922  0.8398  -1.2594   0.0000   0.0000   0.0000   0.4059
   2.500   1.0074   0.00674   0.00244  -0.1604  0.5886  0.8492  -1.2726   0.0000   0.0000   0.0000   0.4039
   2.600   1.0179   0.00676   0.00247  -0.1603  0.5849  0.8584  -1.2857   0.0000   0.0000   0.0000   0.4020
   2.700   1.0282   0.00679   0.00251  -0.1601  0.5814  0.8683  -1.2986   0.0000   0.0000   0.0000   0.4001
   2.800   1.0384   0.00681   0.00254  -0.1599  0.5782  0.8791  -1.3115   0.0000   0.0000   0.0000   0.3983
   2.900   1.0485   0.00682   0.00257  -0.1596  0.5748  0.8906  -1.3243   0.0000   0.0000   0.0000   0.3964
   3.000   1.0581   0.00684   0.00261  -0.1593  0.5715  0.9032  -1.3369   0.0000   0.0000   0.0000   0.3946
   3.100   1.0671   0.00685   0.00264  -0.1588  0.5684  0.9179  -1.3489   0.0000   0.0000   0.0000   0.3927
   3.200   1.0754   0.00683   0.00266  -0.1581  0.5649  0.9398  -1.3606   0.0000   0.0000   0.0000   0.3908
   3.300   1.0859   0.00681   0.00265  -0.1579  0.5612  1.0000  -1.3738   0.0000   0.0000   0.0000   0.3891
   3.400   1.0968   0.00688   0.00269  -0.1579  0.5578  1.0000  -1.3873   0.0000   0.0000   0.0000   0.3875
   3.500   1.1081   0.00692   0.00273  -0.1580  0.5540  1.0000  -1.4011   0.0000   0.0000   0.0000   0.3860
   3.600   1.1191   0.00698   0.00277  -0.1580  0.5501  1.0000  -1.4148   0.0000   0.0000   0.0000   0.3845
   3.700   1.1299   0.00705   0.00282  -0.1580  0.5465  1.0000  -1.4283   0.0000   0.0000   0.0000   0.3830
   3.800   1.1411   0.00710   0.00286  -0.1581  0.5425  1.0000  -1.4423   0.0000   0.0000   0.0000   0.3815
   3.900   1.1519   0.00717   0.00291  -0.1581  0.5383  1.0000  -1.4563   0.0000   0.0000   0.0000   0.3801
   4.000   1.1627   0.00724   0.00296  -0.1581  0.5343  1.0000  -1.4715   0.0000   0.0000   0.0000   0.3786
   4.100   1.1736   0.00731   0.00301  -0.1581  0.5297  1.0000  -1.4870   0.0000   0.0000   0.0000   0.3772
   4.200   1.1840   0.00739   0.00307  -0.1580  0.5254  1.0000  -1.5024   0.0000   0.0000   0.0000   0.3758
   4.300   1.1949   0.00745   0.00311  -0.1580  0.5209  1.0000  -1.5185   0.0000   0.0000   0.0000   0.3745
   4.400   1.2054   0.00754   0.00317  -0.1579  0.5164  1.0000  -1.5342   0.0000   0.0000   0.0000   0.3731
   4.500   1.2160   0.00761   0.00323  -0.1579  0.5122  1.0000  -1.5500   0.0000   0.0000   0.0000   0.3718
   4.600   1.2267   0.00769   0.00329  -0.1578  0.5076  1.0000  -1.5663   0.0000   0.0000   0.0000   0.3705
   4.700   1.2368   0.00778   0.00336  -0.1577  0.5034  1.0000  -1.5829   0.0000   0.0000   0.0000   0.3692
   4.800   1.2477   0.00785   0.00342  -0.1577  0.4991  1.0000  -1.6001   0.0000   0.0000   0.0000   0.3680
   4.900   1.2580   0.00793   0.00348  -0.1576  0.4945  1.0000  -1.6169   0.0000   0.0000   0.0000   0.3667
   5.000   1.2684   0.00802   0.00355  -0.1575  0.4902  1.0000  -1.6337   0.0000   0.0000   0.0000   0.3655
   5.100   1.2788   0.00810   0.00362  -0.1574  0.4854  1.0000  -1.6507   0.0000   0.0000   0.0000   0.3643
   5.200   1.2888   0.00821   0.00369  -0.1573  0.4809  1.0000  -1.6679   0.0000   0.0000   0.0000   0.3631
   5.300   1.2993   0.00828   0.00376  -0.1572  0.4757  1.0000  -1.6881   0.0000   0.0000   0.0000   0.3619
   5.400   1.3090   0.00840   0.00385  -0.1570  0.4706  1.0000  -1.7076   0.0000   0.0000   0.0000   0.3607
   5.500   1.3194   0.00848   0.00392  -0.1569  0.4652  1.0000  -1.7277   0.0000   0.0000   0.0000   0.3595
   5.700   1.3392   0.00869   0.00408  -0.1566  0.4545  1.0000  -1.7674   0.0000   0.0000   0.0000   0.3572
   5.900   1.3589   0.00890   0.00425  -0.1563  0.4440  1.0000  -1.8070   0.0000   0.0000   0.0000   0.3550
   6.000   1.3684   0.00903   0.00435  -0.1561  0.4389  1.0000  -1.8274   0.0000   0.0000   0.0000   0.3539
   6.100   1.3783   0.00912   0.00444  -0.1559  0.4339  1.0000  -1.8523   0.0000   0.0000   0.0000   0.3528
   6.200   1.3878   0.00925   0.00454  -0.1557  0.4286  1.0000  -1.8768   0.0000   0.0000   0.0000   0.3517
   6.300   1.3974   0.00936   0.00463  -0.1555  0.4233  1.0000  -1.9016   0.0000   0.0000   0.0000   0.3506
   6.400   1.4066   0.00949   0.00474  -0.1552  0.4174  1.0000  -1.9260   0.0000   0.0000   0.0000   0.3496
   6.500   1.4161   0.00961   0.00483  -0.1550  0.4115  1.0000  -1.9507   0.0000   0.0000   0.0000   0.3485
   6.600   1.4248   0.00977   0.00495  -0.1546  0.4054  1.0000  -1.9747   0.0000   0.0000   0.0000   0.3474
   6.700   1.4342   0.00988   0.00505  -0.1544  0.3990  1.0000  -1.9996   0.0000   0.0000   0.0000   0.3464
   6.800   1.4429   0.01004   0.00517  -0.1540  0.3928  1.0000  -2.0236   0.0000   0.0000   0.0000   0.3454
   6.900   1.4517   0.01018   0.00530  -0.1537  0.3861  1.0000  -2.0479   0.0000   0.0000   0.0000   0.3443
   7.000   1.4604   0.01033   0.00542  -0.1533  0.3797  1.0000  -2.0720   0.0000   0.0000   0.0000   0.3433
   7.100   1.4684   0.01051   0.00556  -0.1529  0.3734  1.0000  -2.0955   0.0000   0.0000   0.0000   0.3423
   7.200   1.4772   0.01065   0.00568  -0.1525  0.3671  1.0000  -2.1200   0.0000   0.0000   0.0000   0.3413
   7.300   1.4854   0.01082   0.00581  -0.1521  0.3612  1.0000  -2.1467   0.0000   0.0000   0.0000   0.3402
   7.400   1.4938   0.01097   0.00594  -0.1517  0.3549  1.0000  -2.1779   0.0000   0.0000   0.0000   0.3392
   7.500   1.5021   0.01113   0.00608  -0.1513  0.3492  1.0000  -2.2088   0.0000   0.0000   0.0000   0.3382
   7.600   1.5099   0.01130   0.00622  -0.1508  0.3432  1.0000  -2.2392   0.0000   0.0000   0.0000   0.3372
   7.700   1.5178   0.01146   0.00636  -0.1503  0.3372  1.0000  -2.2700   0.0000   0.0000   0.0000   0.3362
   7.800   1.5246   0.01164   0.00652  -0.1496  0.3313  1.0000  -2.2988   0.0000   0.0000   0.0000   0.3352
   7.900   1.5321   0.01180   0.00666  -0.1490  0.3253  1.0000  -2.3290   0.0000   0.0000   0.0000   0.3342
   8.000   1.5389   0.01199   0.00682  -0.1484  0.3199  1.0000  -2.3583   0.0000   0.0000   0.0000   0.3331
   8.100   1.5460   0.01217   0.00698  -0.1477  0.3141  1.0000  -2.3881   0.0000   0.0000   0.0000   0.3321
   8.200   1.5527   0.01237   0.00715  -0.1471  0.3087  1.0000  -2.4174   0.0000   0.0000   0.0000   0.3311
   8.300   1.5593   0.01257   0.00733  -0.1464  0.3030  1.0000  -2.4465   0.0000   0.0000   0.0000   0.3301
   8.400   1.5659   0.01277   0.00751  -0.1457  0.2973  1.0000  -2.4758   0.0000   0.0000   0.0000   0.3291
   8.600   1.5783   0.01322   0.00790  -0.1442  0.2851  1.0000  -2.5333   0.0000   0.0000   0.0000   0.3271
   8.700   1.5842   0.01345   0.00812  -0.1434  0.2794  1.0000  -2.5616   0.0000   0.0000   0.0000   0.3261
   8.800   1.5903   0.01369   0.00833  -0.1427  0.2736  1.0000  -2.5904   0.0000   0.0000   0.0000   0.3251
   8.900   1.5963   0.01392   0.00855  -0.1420  0.2686  1.0000  -2.6191   0.0000   0.0000   0.0000   0.3242
   9.000   1.6021   0.01417   0.00878  -0.1412  0.2636  1.0000  -2.6561   0.0000   0.0000   0.0000   0.3232
   9.100   1.6082   0.01441   0.00900  -0.1405  0.2591  1.0000  -2.6996   0.0000   0.0000   0.0000   0.3223
   9.200   1.6140   0.01467   0.00924  -0.1398  0.2544  1.0000  -2.7524   0.0000   0.0000   0.0000   0.3214
   9.300   1.6199   0.01492   0.00948  -0.1391  0.2502  1.0000  -2.8092   0.0000   0.0000   0.0000   0.3204
   9.400   1.6258   0.01518   0.00973  -0.1384  0.2456  1.0000  -2.8662   0.0000   0.0000   0.0000   0.3195
   9.500   1.6312   0.01547   0.01000  -0.1377  0.2413  1.0000  -2.9223   0.0000   0.0000   0.0000   0.3186
   9.600   1.6368   0.01576   0.01028  -0.1370  0.2364  1.0000  -2.9791   0.0000   0.0000   0.0000   0.3177
   9.700   1.6420   0.01607   0.01057  -0.1362  0.2318  1.0000  -3.0352   0.0000   0.0000   0.0000   0.3168
   9.800   1.6472   0.01638   0.01087  -0.1355  0.2265  1.0000  -3.0914   0.0000   0.0000   0.0000   0.3159
   9.900   1.6522   0.01671   0.01119  -0.1348  0.2213  1.0000  -3.1475   0.0000   0.0000   0.0000   0.3151
  10.100   1.6615   0.01744   0.01187  -0.1332  0.2106  1.0000  -3.2578   0.0000   0.0000   0.0000   0.3133
  10.200   1.6656   0.01784   0.01224  -0.1324  0.2055  1.0000  -3.3118   0.0000   0.0000   0.0000   0.3124
  10.300   1.6701   0.01823   0.01261  -0.1317  0.1999  1.0000  -3.3670   0.0000   0.0000   0.0000   0.3116
  10.400   1.6743   0.01864   0.01300  -0.1309  0.1948  1.0000  -3.4218   0.0000   0.0000   0.0000   0.3107
  10.600   1.6822   0.01950   0.01382  -0.1293  0.1844  1.0000  -3.5305   0.0000   0.0000   0.0000   0.3091
  10.700   1.6859   0.01995   0.01426  -0.1285  0.1795  1.0000  -3.5842   0.0000   0.0000   0.0000   0.3082
  10.800   1.6899   0.02040   0.01468  -0.1278  0.1743  1.0000  -3.6394   0.0000   0.0000   0.0000   0.3074
  10.900   1.6940   0.02085   0.01511  -0.1271  0.1695  1.0000  -3.6950   0.0000   0.0000   0.0000   0.3066
  11.100   1.7012   0.02181   0.01604  -0.1256  0.1598  1.0000  -3.8039   0.0000   0.0000   0.0000   0.3051
  11.200   1.7044   0.02232   0.01653  -0.1248  0.1553  1.0000  -3.8571   0.0000   0.0000   0.0000   0.3043
  11.300   1.7078   0.02283   0.01702  -0.1241  0.1507  1.0000  -3.9114   0.0000   0.0000   0.0000   0.3035
  11.400   1.7111   0.02335   0.01753  -0.1233  0.1467  1.0000  -3.9655   0.0000   0.0000   0.0000   0.3027
  11.500   1.7141   0.02389   0.01806  -0.1226  0.1425  1.0000  -4.0188   0.0000   0.0000   0.0000   0.3019
  11.600   1.7176   0.02441   0.01857  -0.1219  0.1386  1.0000  -4.0741   0.0000   0.0000   0.0000   0.3012
  11.700   1.7203   0.02498   0.01913  -0.1211  0.1344  1.0000  -4.1267   0.0000   0.0000   0.0000   0.3004
  11.800   1.7236   0.02552   0.01966  -0.1204  0.1304  1.0000  -4.1815   0.0000   0.0000   0.0000   0.2997
  11.900   1.7257   0.02614   0.02026  -0.1196  0.1265  1.0000  -4.2324   0.0000   0.0000   0.0000   0.2990
  12.000   1.7289   0.02669   0.02080  -0.1189  0.1225  1.0000  -4.2874   0.0000   0.0000   0.0000   0.2982
  12.100   1.7310   0.02732   0.02142  -0.1181  0.1188  1.0000  -4.3386   0.0000   0.0000   0.0000   0.2975
  12.200   1.7338   0.02791   0.02200  -0.1174  0.1149  1.0000  -4.3926   0.0000   0.0000   0.0000   0.2968
  12.300   1.7360   0.02855   0.02263  -0.1167  0.1114  1.0000  -4.4441   0.0000   0.0000   0.0000   0.2961
  12.400   1.7384   0.02918   0.02325  -0.1160  0.1079  1.0000  -4.4972   0.0000   0.0000   0.0000   0.2954
  12.500   1.7405   0.02984   0.02390  -0.1153  0.1048  1.0000  -4.5488   0.0000   0.0000   0.0000   0.2947
  12.600   1.7429   0.03046   0.02452  -0.1146  0.1016  1.0000  -4.6023   0.0000   0.0000   0.0000   0.2940
  12.700   1.7446   0.03115   0.02520  -0.1138  0.0987  1.0000  -4.6527   0.0000   0.0000   0.0000   0.2933
  12.800   1.7472   0.03177   0.02582  -0.1132  0.0957  1.0000  -4.7072   0.0000   0.0000   0.0000   0.2926
  13.000   1.7513   0.03313   0.02718  -0.1119  0.0902  1.0000  -4.8121   0.0000   0.0000   0.0000   0.2912
  13.100   1.7529   0.03385   0.02790  -0.1112  0.0874  1.0000  -4.8629   0.0000   0.0000   0.0000   0.2906
  13.200   1.7552   0.03453   0.02858  -0.1105  0.0849  1.0000  -4.9166   0.0000   0.0000   0.0000   0.2899
  13.300   1.7571   0.03525   0.02929  -0.1099  0.0823  1.0000  -4.9693   0.0000   0.0000   0.0000   0.2893
  13.400   1.7588   0.03599   0.03004  -0.1093  0.0800  1.0000  -5.0207   0.0000   0.0000   0.0000   0.2887
  13.500   1.7609   0.03670   0.03075  -0.1087  0.0777  1.0000  -5.0746   0.0000   0.0000   0.0000   0.2880
  13.600   1.7622   0.03748   0.03153  -0.1080  0.0755  1.0000  -5.1248   0.0000   0.0000   0.0000   0.2874
  13.700   1.7642   0.03821   0.03227  -0.1075  0.0736  1.0000  -5.1782   0.0000   0.0000   0.0000   0.2868
  13.800   1.7661   0.03896   0.03302  -0.1069  0.0714  1.0000  -5.2313   0.0000   0.0000   0.0000   0.2862
  14.000   1.7691   0.04055   0.03462  -0.1058  0.0675  1.0000  -5.3345   0.0000   0.0000   0.0000   0.2850
  14.100   1.7706   0.04135   0.03543  -0.1052  0.0656  1.0000  -5.3864   0.0000   0.0000   0.0000   0.2844
  14.200   1.7713   0.04224   0.03632  -0.1046  0.0638  1.0000  -5.4347   0.0000   0.0000   0.0000   0.2838
  14.300   1.7734   0.04300   0.03710  -0.1041  0.0619  1.0000  -5.4898   0.0000   0.0000   0.0000   0.2833
  14.400   1.7746   0.04386   0.03796  -0.1036  0.0599  1.0000  -5.5406   0.0000   0.0000   0.0000   0.2827
  14.500   1.7754   0.04477   0.03887  -0.1031  0.0582  1.0000  -5.5896   0.0000   0.0000   0.0000   0.2821
  14.600   1.7770   0.04560   0.03971  -0.1026  0.0564  1.0000  -5.6427   0.0000   0.0000   0.0000   0.2816
  14.700   1.7775   0.04653   0.04065  -0.1021  0.0547  1.0000  -5.6911   0.0000   0.0000   0.0000   0.2811
  14.800   1.7783   0.04744   0.04157  -0.1016  0.0531  1.0000  -5.7406   0.0000   0.0000   0.0000   0.2805
  14.900   1.7797   0.04831   0.04245  -0.1011  0.0513  1.0000  -5.7928   0.0000   0.0000   0.0000   0.2800
  15.000   1.7799   0.04930   0.04344  -0.1006  0.0496  1.0000  -5.8398   0.0000   0.0000   0.0000   0.2795
  15.100   1.7807   0.05024   0.04439  -0.1002  0.0480  1.0000  -5.8896   0.0000   0.0000   0.0000   0.2790
  15.200   1.7813   0.05121   0.04537  -0.0998  0.0464  1.0000  -5.9385   0.0000   0.0000   0.0000   0.2785
  15.300   1.7812   0.05225   0.04642  -0.0993  0.0449  1.0000  -5.9844   0.0000   0.0000   0.0000   0.2780
  15.400   1.7818   0.05324   0.04742  -0.0989  0.0436  1.0000  -6.0336   0.0000   0.0000   0.0000   0.2775
  15.500   1.7823   0.05425   0.04845  -0.0985  0.0423  1.0000  -6.0821   0.0000   0.0000   0.0000   0.2770
  15.600   1.7823   0.05532   0.04952  -0.0981  0.0410  1.0000  -6.1282   0.0000   0.0000   0.0000   0.2766
  15.700   1.7821   0.05641   0.05063  -0.0977  0.0399  1.0000  -6.1734   0.0000   0.0000   0.0000   0.2761
  15.800   1.7828   0.05741   0.05165  -0.0974  0.0387  1.0000  -6.2236   0.0000   0.0000   0.0000   0.2757
  15.900   1.7828   0.05850   0.05275  -0.0970  0.0376  1.0000  -6.2700   0.0000   0.0000   0.0000   0.2752
  16.000   1.7821   0.05967   0.05394  -0.0966  0.0365  1.0000  -6.3130   0.0000   0.0000   0.0000   0.2748
  16.100   1.7822   0.06075   0.05504  -0.0963  0.0356  1.0000  -6.3598   0.0000   0.0000   0.0000   0.2744
  16.200   1.7825   0.06182   0.05613  -0.0960  0.0346  1.0000  -6.4077   0.0000   0.0000   0.0000   0.2739
  16.300   1.7823   0.06294   0.05727  -0.0957  0.0335  1.0000  -6.4533   0.0000   0.0000   0.0000   0.2735
  16.400   1.7814   0.06417   0.05851  -0.0954  0.0326  1.0000  -6.4951   0.0000   0.0000   0.0000   0.2731
  16.500   1.7809   0.06534   0.05971  -0.0951  0.0318  1.0000  -6.5394   0.0000   0.0000   0.0000   0.2728
  16.600   1.7811   0.06646   0.06084  -0.0949  0.0309  1.0000  -6.5868   0.0000   0.0000   0.0000   0.2724
  16.700   1.7805   0.06767   0.06208  -0.0946  0.0300  1.0000  -6.6302   0.0000   0.0000   0.0000   0.2720
  16.800   1.7795   0.06894   0.06336  -0.0944  0.0291  1.0000  -6.6715   0.0000   0.0000   0.0000   0.2717
  16.900   1.7781   0.07026   0.06470  -0.0942  0.0283  1.0000  -6.7112   0.0000   0.0000   0.0000   0.2713
  17.000   1.7782   0.07141   0.06588  -0.0940  0.0275  1.0000  -6.7581   0.0000   0.0000   0.0000   0.2710
  17.100   1.7775   0.07267   0.06716  -0.0938  0.0266  1.0000  -6.8009   0.0000   0.0000   0.0000   0.2706
  17.200   1.7761   0.07401   0.06852  -0.0936  0.0258  1.0000  -6.8403   0.0000   0.0000   0.0000   0.2703
  17.400   1.7735   0.07672   0.07127  -0.0933  0.0244  1.0000  -6.9190   0.0000   0.0000   0.0000   0.2697
  17.500   1.7725   0.07801   0.07259  -0.0932  0.0237  1.0000  -6.9605   0.0000   0.0000   0.0000   0.2694
  17.600   1.7708   0.07942   0.07402  -0.0931  0.0230  1.0000  -6.9974   0.0000   0.0000   0.0000   0.2692
  17.700   1.7688   0.08084   0.07547  -0.0930  0.0224  1.0000  -7.0334   0.0000   0.0000   0.0000   0.2689
  17.900   1.7650   0.08374   0.07841  -0.0928  0.0213  1.0000  -7.1048   0.0000   0.0000   0.0000   0.2684
  18.000   1.7635   0.08515   0.07986  -0.0928  0.0208  1.0000  -7.1426   0.0000   0.0000   0.0000   0.2682
  18.100   1.7617   0.08660   0.08133  -0.0927  0.0203  1.0000  -7.1844   0.0000   0.0000   0.0000   0.2680
  18.200   1.7595   0.08812   0.08288  -0.0927  0.0199  1.0000  -7.2261   0.0000   0.0000   0.0000   0.2678
  18.300   1.7570   0.08969   0.08448  -0.0927  0.0194  1.0000  -7.2654   0.0000   0.0000   0.0000   0.2676
  18.400   1.7542   0.09130   0.08612  -0.0928  0.0190  1.0000  -7.3029   0.0000   0.0000   0.0000   0.2674
  18.500   1.7516   0.09289   0.08774  -0.0928  0.0186  1.0000  -7.3420   0.0000   0.0000   0.0000   0.2673
  18.600   1.7503   0.09432   0.08920  -0.0929  0.0183  1.0000  -7.3884   0.0000   0.0000   0.0000   0.2671
  18.700   1.7484   0.09584   0.09075  -0.0930  0.0179  1.0000  -7.4314   0.0000   0.0000   0.0000   0.2669
  18.800   1.7464   0.09737   0.09231  -0.0931  0.0175  1.0000  -7.4738   0.0000   0.0000   0.0000   0.2668
  18.900   1.7438   0.09899   0.09397  -0.0932  0.0172  1.0000  -7.5119   0.0000   0.0000   0.0000   0.2667
  19.000   1.7411   0.10062   0.09562  -0.0934  0.0168  1.0000  -7.5494   0.0000   0.0000   0.0000   0.2666
  19.100   1.7377   0.10233   0.09737  -0.0935  0.0165  1.0000  -7.5824   0.0000   0.0000   0.0000   0.2665
  19.200   1.7344   0.10405   0.09911  -0.0937  0.0162  1.0000  -7.6153   0.0000   0.0000   0.0000   0.2665
  19.400   1.7288   0.10739   0.10251  -0.0942  0.0157  1.0000  -7.6868   0.0000   0.0000   0.0000   0.2664
  19.500   1.7264   0.10900   0.10416  -0.0944  0.0154  1.0000  -7.7255   0.0000   0.0000   0.0000   0.2663
  19.600   1.7241   0.11062   0.10582  -0.0946  0.0151  1.0000  -7.7638   0.0000   0.0000   0.0000   0.2663
  19.700   1.7214   0.11230   0.10753  -0.0949  0.0149  1.0000  -7.7996   0.0000   0.0000   0.0000   0.2662
  19.800   1.7184   0.11402   0.10929  -0.0953  0.0146  1.0000  -7.8336   0.0000   0.0000   0.0000   0.2663
  19.900   1.7153   0.11578   0.11108  -0.0956  0.0144  1.0000  -7.8660   0.0000   0.0000   0.0000   0.2663
  20.000   1.7119   0.11758   0.11291  -0.0960  0.0141  1.0000  -7.8961   0.0000   0.0000   0.0000   0.2664


