xflr5 v6.57

 Calculated polar for: rev_root_140

 1 1 Reynolds number fixed          Mach number fixed         

 xtrf =   1.000 (top)        1.000 (bottom)
 Mach =   0.000     Re =     0.400 e 6     Ncrit =   9.000

  alpha     CL        CD       CDp       Cm    Top Xtr Bot Xtr   Cpmin    Chinge    XCp    
 ------- -------- --------- --------- -------- ------- ------- -------- --------- ---------
  -9.500  -0.3103   0.03405   0.02991  -0.1445  0.8544  0.0275  -5.0447   0.0000   0.0000   0.0000  -0.2420
  -9.400  -0.3050   0.03269   0.02846  -0.1455  0.8527  0.0276  -5.0138   0.0000   0.0000   0.0000  -0.2532
  -9.300  -0.2975   0.03196   0.02771  -0.1460  0.8505  0.0279  -4.9454   0.0000   0.0000   0.0000  -0.2672
  -9.200  -0.2154   0.05513   0.05204  -0.1136  0.8547  0.0312  -3.6257   0.0000   0.0000   0.0000  -0.3125
  -9.100  -0.2176   0.05228   0.04917  -0.1165  0.8526  0.0310  -3.6826   0.0000   0.0000   0.0000  -0.3197
  -9.000  -0.2299   0.04363   0.04038  -0.1312  0.8481  0.0303  -3.9649   0.0000   0.0000   0.0000  -0.3526
  -8.900  -0.2626   0.02987   0.02548  -0.1473  0.8436  0.0286  -4.6417   0.0000   0.0000   0.0000  -0.3395
  -8.800  -0.2566   0.02829   0.02370  -0.1484  0.8413  0.0287  -4.6370   0.0000   0.0000   0.0000  -0.3570
  -8.700  -0.2490   0.02713   0.02238  -0.1491  0.8393  0.0289  -4.6053   0.0000   0.0000   0.0000  -0.3779
  -8.600  -0.2408   0.02612   0.02123  -0.1496  0.8376  0.0290  -4.5640   0.0000   0.0000   0.0000  -0.4015
  -8.500  -0.2320   0.02520   0.02015  -0.1501  0.8361  0.0292  -4.5174   0.0000   0.0000   0.0000  -0.4279
  -8.400  -0.2228   0.02435   0.01915  -0.1506  0.8349  0.0294  -4.4669   0.0000   0.0000   0.0000  -0.4575
  -8.300  -0.2136   0.02356   0.01825  -0.1509  0.8329  0.0296  -4.4146   0.0000   0.0000   0.0000  -0.4889
  -8.200  -0.2041   0.02283   0.01738  -0.1512  0.8310  0.0299  -4.3594   0.0000   0.0000   0.0000  -0.5243
  -8.100  -0.1944   0.02215   0.01657  -0.1515  0.8294  0.0302  -4.3015   0.0000   0.0000   0.0000  -0.5642
  -8.000  -0.1843   0.02152   0.01580  -0.1517  0.8279  0.0304  -4.2502   0.0000   0.0000   0.0000  -0.6096
  -7.900  -0.1739   0.02097   0.01510  -0.1520  0.8266  0.0307  -4.1953   0.0000   0.0000   0.0000  -0.6618
  -7.800  -0.1633   0.02052   0.01451  -0.1522  0.8253  0.0311  -4.1369   0.0000   0.0000   0.0000  -0.7216
  -7.700  -0.1527   0.02020   0.01405  -0.1523  0.8234  0.0314  -4.0748   0.0000   0.0000   0.0000  -0.7896
  -7.600  -0.1428   0.01950   0.01329  -0.1525  0.8218  0.0318  -4.0177   0.0000   0.0000   0.0000  -0.8619
  -7.500  -0.1325   0.01904   0.01282  -0.1526  0.8203  0.0321  -3.9452   0.0000   0.0000   0.0000  -0.9483
  -7.400  -0.1218   0.01872   0.01249  -0.1527  0.8189  0.0325  -3.8682   0.0000   0.0000   0.0000  -1.0538
  -7.300  -0.1109   0.01843   0.01216  -0.1529  0.8177  0.0328  -3.7924   0.0000   0.0000   0.0000  -1.1826
  -7.200  -0.0998   0.01814   0.01181  -0.1530  0.8166  0.0332  -3.7193   0.0000   0.0000   0.0000  -1.3414
  -7.100  -0.0893   0.01784   0.01149  -0.1531  0.8149  0.0335  -3.6494   0.0000   0.0000   0.0000  -1.5295
  -7.000  -0.0785   0.01754   0.01115  -0.1531  0.8132  0.0339  -3.5829   0.0000   0.0000   0.0000  -1.7726
  -6.900  -0.0676   0.01724   0.01080  -0.1532  0.8116  0.0342  -3.5230   0.0000   0.0000   0.0000  -2.0975
  -6.800  -0.0566   0.01695   0.01045  -0.1533  0.8102  0.0346  -3.4634   0.0000   0.0000   0.0000  -2.5535
  -6.700  -0.0455   0.01667   0.01010  -0.1534  0.8089  0.0350  -3.4038   0.0000   0.0000   0.0000  -3.2420
  -6.600  -0.0341   0.01641   0.00977  -0.1534  0.8077  0.0354  -3.3437   0.0000   0.0000   0.0000  -4.4004
  -6.500  -0.0231   0.01620   0.00949  -0.1535  0.8060  0.0358  -3.2838   0.0000   0.0000   0.0000  -6.6112
  -6.400  -0.0124   0.01588   0.00914  -0.1535  0.8043  0.0362  -3.2255   0.0000   0.0000   0.0000  -12.5182
  -6.300  -0.0018   0.01553   0.00881  -0.1536  0.8027  0.0368  -3.1617   0.0000   0.0000   0.0000  -85.6820
  -6.200   0.0092   0.01531   0.00861  -0.1537  0.8012  0.0373  -3.0931   0.0000   0.0000   0.0000  17.5583
  -6.100   0.0204   0.01513   0.00841  -0.1538  0.7999  0.0379  -3.0252   0.0000   0.0000   0.0000   8.0232
  -6.000   0.0318   0.01495   0.00820  -0.1539  0.7988  0.0386  -2.9592   0.0000   0.0000   0.0000   5.2395
  -5.900   0.0432   0.01477   0.00798  -0.1540  0.7976  0.0392  -2.8955   0.0000   0.0000   0.0000   3.9228
  -5.800   0.0541   0.01458   0.00777  -0.1540  0.7958  0.0398  -2.8351   0.0000   0.0000   0.0000   3.1821
  -5.700   0.0652   0.01441   0.00756  -0.1540  0.7942  0.0404  -2.7747   0.0000   0.0000   0.0000   2.6814
  -5.600   0.0763   0.01419   0.00731  -0.1541  0.7926  0.0410  -2.7153   0.0000   0.0000   0.0000   2.3261
  -5.500   0.0874   0.01390   0.00704  -0.1542  0.7912  0.0417  -2.6536   0.0000   0.0000   0.0000   2.0648
  -5.400   0.0987   0.01372   0.00686  -0.1543  0.7900  0.0425  -2.5885   0.0000   0.0000   0.0000   1.8560
  -5.300   0.1103   0.01357   0.00669  -0.1544  0.7888  0.0434  -2.5241   0.0000   0.0000   0.0000   1.6879
  -5.200   0.1216   0.01342   0.00653  -0.1545  0.7875  0.0445  -2.4694   0.0000   0.0000   0.0000   1.5540
  -5.100   0.1328   0.01329   0.00638  -0.1545  0.7858  0.0455  -2.4171   0.0000   0.0000   0.0000   1.4442
  -5.000   0.1439   0.01308   0.00617  -0.1547  0.7842  0.0468  -2.3634   0.0000   0.0000   0.0000   1.3521
  -4.900   0.1552   0.01294   0.00605  -0.1548  0.7827  0.0482  -2.3054   0.0000   0.0000   0.0000   1.2717
  -4.800   0.1667   0.01283   0.00592  -0.1549  0.7814  0.0501  -2.2497   0.0000   0.0000   0.0000   1.2011
  -4.700   0.1784   0.01267   0.00574  -0.1550  0.7802  0.0520  -2.1960   0.0000   0.0000   0.0000   1.1394
  -4.600   0.1901   0.01254   0.00561  -0.1552  0.7791  0.0542  -2.1386   0.0000   0.0000   0.0000   1.0850
  -4.400   0.2126   0.01228   0.00537  -0.1553  0.7759  0.0596  -2.0317   0.0000   0.0000   0.0000   0.9964
  -4.300   0.2240   0.01217   0.00524  -0.1554  0.7743  0.0632  -1.9788   0.0000   0.0000   0.0000   0.9583
  -4.200   0.2355   0.01203   0.00512  -0.1555  0.7728  0.0669  -1.9235   0.0000   0.0000   0.0000   0.9240
  -4.100   0.2471   0.01189   0.00498  -0.1557  0.7714  0.0711  -1.8729   0.0000   0.0000   0.0000   0.8926
  -4.000   0.2589   0.01178   0.00486  -0.1558  0.7702  0.0759  -1.8232   0.0000   0.0000   0.0000   0.8636
  -3.900   0.2707   0.01167   0.00476  -0.1560  0.7690  0.0811  -1.7720   0.0000   0.0000   0.0000   0.8370
  -3.800   0.2819   0.01157   0.00469  -0.1561  0.7673  0.0867  -1.7223   0.0000   0.0000   0.0000   0.8137
  -3.700   0.2931   0.01147   0.00462  -0.1561  0.7655  0.0931  -1.6724   0.0000   0.0000   0.0000   0.7920
  -3.600   0.3045   0.01138   0.00455  -0.1562  0.7638  0.1002  -1.6221   0.0000   0.0000   0.0000   0.7717
  -3.500   0.3161   0.01128   0.00447  -0.1563  0.7623  0.1081  -1.5716   0.0000   0.0000   0.0000   0.7528
  -3.400   0.3278   0.01119   0.00440  -0.1565  0.7610  0.1168  -1.5206   0.0000   0.0000   0.0000   0.7350
  -3.300   0.3396   0.01111   0.00433  -0.1566  0.7597  0.1265  -1.4696   0.0000   0.0000   0.0000   0.7183
  -3.200   0.3513   0.01104   0.00427  -0.1568  0.7585  0.1368  -1.4190   0.0000   0.0000   0.0000   0.7028
  -3.100   0.3624   0.01096   0.00424  -0.1568  0.7566  0.1472  -1.3701   0.0000   0.0000   0.0000   0.6889
  -3.000   0.3737   0.01088   0.00421  -0.1569  0.7548  0.1584  -1.3209   0.0000   0.0000   0.0000   0.6756
  -2.900   0.3852   0.01081   0.00417  -0.1570  0.7532  0.1708  -1.2715   0.0000   0.0000   0.0000   0.6630
  -2.800   0.3968   0.01074   0.00413  -0.1572  0.7518  0.1837  -1.2221   0.0000   0.0000   0.0000   0.6510
  -2.700   0.4086   0.01067   0.00408  -0.1573  0.7505  0.1968  -1.1728   0.0000   0.0000   0.0000   0.6396
  -2.600   0.4205   0.01061   0.00404  -0.1575  0.7493  0.2102  -1.1237   0.0000   0.0000   0.0000   0.6287
  -2.500   0.4319   0.01055   0.00402  -0.1576  0.7477  0.2233  -1.0762   0.0000   0.0000   0.0000   0.6188
  -2.400   0.4430   0.01050   0.00402  -0.1577  0.7459  0.2361  -1.0332   0.0000   0.0000   0.0000   0.6094
  -2.300   0.4544   0.01044   0.00400  -0.1578  0.7442  0.2489  -0.9904   0.0000   0.0000   0.0000   0.6003
  -2.200   0.4660   0.01039   0.00397  -0.1579  0.7426  0.2621  -0.9477   0.0000   0.0000   0.0000   0.5917
  -2.100   0.4777   0.01033   0.00394  -0.1580  0.7411  0.2760  -0.9049   0.0000   0.0000   0.0000   0.5834
  -2.000   0.4896   0.01028   0.00390  -0.1581  0.7398  0.2908  -0.8623   0.0000   0.0000   0.0000   0.5754
  -1.900   0.5013   0.01023   0.00387  -0.1583  0.7384  0.3054  -0.8256   0.0000   0.0000   0.0000   0.5678
  -1.800   0.5123   0.01018   0.00388  -0.1583  0.7363  0.3202  -0.8331   0.0000   0.0000   0.0000   0.5609
  -1.700   0.5236   0.01013   0.00388  -0.1584  0.7343  0.3367  -0.8409   0.0000   0.0000   0.0000   0.5541
  -1.600   0.5351   0.01007   0.00386  -0.1585  0.7325  0.3540  -0.8488   0.0000   0.0000   0.0000   0.5475
  -1.500   0.5467   0.01001   0.00384  -0.1586  0.7309  0.3721  -0.8568   0.0000   0.0000   0.0000   0.5412
  -1.300   0.5702   0.00992   0.00380  -0.1588  0.7280  0.4082  -0.8730   0.0000   0.0000   0.0000   0.5293
  -1.200   0.5812   0.00988   0.00382  -0.1589  0.7258  0.4258  -0.8806   0.0000   0.0000   0.0000   0.5238
  -1.100   0.5925   0.00983   0.00382  -0.1589  0.7239  0.4434  -0.8884   0.0000   0.0000   0.0000   0.5185
  -1.000   0.6040   0.00978   0.00382  -0.1590  0.7222  0.4620  -0.8965   0.0000   0.0000   0.0000   0.5134
  -0.900   0.6156   0.00973   0.00381  -0.1591  0.7207  0.4822  -0.9057   0.0000   0.0000   0.0000   0.5084
  -0.800   0.6274   0.00969   0.00380  -0.1592  0.7193  0.5035  -0.9150   0.0000   0.0000   0.0000   0.5035
  -0.700   0.6389   0.00964   0.00381  -0.1593  0.7177  0.5253  -0.9242   0.0000   0.0000   0.0000   0.4989
  -0.600   0.6498   0.00959   0.00384  -0.1593  0.7155  0.5486  -0.9328   0.0000   0.0000   0.0000   0.4945
  -0.500   0.6609   0.00955   0.00386  -0.1593  0.7135  0.5726  -0.9417   0.0000   0.0000   0.0000   0.4902
  -0.400   0.6721   0.00950   0.00388  -0.1593  0.7117  0.5968  -0.9508   0.0000   0.0000   0.0000   0.4860
  -0.300   0.6835   0.00945   0.00388  -0.1593  0.7101  0.6209  -0.9601   0.0000   0.0000   0.0000   0.4819
  -0.200   0.6950   0.00942   0.00389  -0.1593  0.7087  0.6433  -0.9696   0.0000   0.0000   0.0000   0.4779
  -0.100   0.7059   0.00940   0.00392  -0.1592  0.7068  0.6650  -0.9787   0.0000   0.0000   0.0000   0.4741
   0.000   0.7164   0.00938   0.00396  -0.1591  0.7045  0.6857  -0.9875   0.0000   0.0000   0.0000   0.4704
   0.100   0.7272   0.00935   0.00399  -0.1589  0.7023  0.7055  -0.9966   0.0000   0.0000   0.0000   0.4668
   0.200   0.7381   0.00933   0.00400  -0.1588  0.7004  0.7251  -1.0058   0.0000   0.0000   0.0000   0.4632
   0.300   0.7492   0.00932   0.00400  -0.1587  0.6987  0.7429  -1.0151   0.0000   0.0000   0.0000   0.4598
   0.400   0.7600   0.00931   0.00401  -0.1585  0.6968  0.7591  -1.0242   0.0000   0.0000   0.0000   0.4564
   0.600   0.7805   0.00930   0.00407  -0.1581  0.6919  0.7871  -1.0418   0.0000   0.0000   0.0000   0.4500
   0.700   0.7912   0.00929   0.00407  -0.1579  0.6899  0.7994  -1.0509   0.0000   0.0000   0.0000   0.4469
   0.800   0.8020   0.00928   0.00407  -0.1577  0.6882  0.8112  -1.0603   0.0000   0.0000   0.0000   0.4439
   0.900   0.8125   0.00928   0.00407  -0.1575  0.6865  0.8227  -1.0707   0.0000   0.0000   0.0000   0.4409
   1.000   0.8221   0.00927   0.00411  -0.1571  0.6839  0.8345  -1.0805   0.0000   0.0000   0.0000   0.4380
   1.100   0.8320   0.00926   0.00413  -0.1568  0.6817  0.8468  -1.0904   0.0000   0.0000   0.0000   0.4352
   1.200   0.8419   0.00925   0.00413  -0.1564  0.6797  0.8593  -1.1005   0.0000   0.0000   0.0000   0.4324
   1.300   0.8515   0.00923   0.00412  -0.1560  0.6779  0.8719  -1.1103   0.0000   0.0000   0.0000   0.4297
   1.400   0.8609   0.00921   0.00411  -0.1555  0.6762  0.8855  -1.1201   0.0000   0.0000   0.0000   0.4270
   1.500   0.8690   0.00918   0.00413  -0.1548  0.6735  0.8997  -1.1291   0.0000   0.0000   0.0000   0.4243
   1.600   0.8770   0.00914   0.00412  -0.1540  0.6710  0.9158  -1.1383   0.0000   0.0000   0.0000   0.4217
   1.700   0.8854   0.00909   0.00408  -0.1533  0.6687  0.9361  -1.1478   0.0000   0.0000   0.0000   0.4190
   1.800   0.8975   0.00903   0.00400  -0.1533  0.6667  0.9676  -1.1596   0.0000   0.0000   0.0000   0.4166
   1.900   0.9104   0.00902   0.00400  -0.1538  0.6639  1.0000  -1.1719   0.0000   0.0000   0.0000   0.4145
   2.000   0.9219   0.00904   0.00401  -0.1539  0.6609  1.0000  -1.1832   0.0000   0.0000   0.0000   0.4124
   2.100   0.9336   0.00906   0.00401  -0.1540  0.6582  1.0000  -1.1949   0.0000   0.0000   0.0000   0.4104
   2.200   0.9456   0.00909   0.00399  -0.1542  0.6560  1.0000  -1.2079   0.0000   0.0000   0.0000   0.4083
   2.300   0.9569   0.00912   0.00401  -0.1543  0.6531  1.0000  -1.2213   0.0000   0.0000   0.0000   0.4064
   2.400   0.9682   0.00914   0.00404  -0.1544  0.6501  1.0000  -1.2348   0.0000   0.0000   0.0000   0.4044
   2.500   0.9797   0.00917   0.00405  -0.1545  0.6476  1.0000  -1.2485   0.0000   0.0000   0.0000   0.4025
   2.600   0.9915   0.00921   0.00404  -0.1546  0.6454  1.0000  -1.2623   0.0000   0.0000   0.0000   0.4007
   2.700   1.0027   0.00924   0.00408  -0.1547  0.6426  1.0000  -1.2758   0.0000   0.0000   0.0000   0.3989
   2.800   1.0138   0.00928   0.00411  -0.1547  0.6396  1.0000  -1.2892   0.0000   0.0000   0.0000   0.3971
   2.900   1.0251   0.00931   0.00413  -0.1548  0.6369  1.0000  -1.3028   0.0000   0.0000   0.0000   0.3953
   3.000   1.0367   0.00935   0.00413  -0.1549  0.6346  1.0000  -1.3167   0.0000   0.0000   0.0000   0.3936
   3.100   1.0476   0.00939   0.00417  -0.1549  0.6314  1.0000  -1.3300   0.0000   0.0000   0.0000   0.3919
   3.200   1.0585   0.00943   0.00421  -0.1549  0.6280  1.0000  -1.3435   0.0000   0.0000   0.0000   0.3902
   3.300   1.0697   0.00947   0.00423  -0.1549  0.6251  1.0000  -1.3571   0.0000   0.0000   0.0000   0.3886
   3.400   1.0808   0.00952   0.00425  -0.1550  0.6221  1.0000  -1.3708   0.0000   0.0000   0.0000   0.3870
   3.500   1.0915   0.00956   0.00430  -0.1549  0.6183  1.0000  -1.3840   0.0000   0.0000   0.0000   0.3854
   3.600   1.1024   0.00960   0.00432  -0.1549  0.6149  1.0000  -1.3976   0.0000   0.0000   0.0000   0.3838
   3.700   1.1134   0.00965   0.00434  -0.1549  0.6119  1.0000  -1.4113   0.0000   0.0000   0.0000   0.3823
   3.800   1.1240   0.00969   0.00439  -0.1548  0.6079  1.0000  -1.4249   0.0000   0.0000   0.0000   0.3808
   3.900   1.1348   0.00974   0.00443  -0.1548  0.6044  1.0000  -1.4388   0.0000   0.0000   0.0000   0.3793
   4.000   1.1457   0.00980   0.00446  -0.1548  0.6015  1.0000  -1.4539   0.0000   0.0000   0.0000   0.3779
   4.100   1.1562   0.00985   0.00452  -0.1547  0.5975  1.0000  -1.4689   0.0000   0.0000   0.0000   0.3764
   4.200   1.1669   0.00991   0.00457  -0.1546  0.5941  1.0000  -1.4842   0.0000   0.0000   0.0000   0.3750
   4.300   1.1777   0.00998   0.00460  -0.1546  0.5911  1.0000  -1.5001   0.0000   0.0000   0.0000   0.3736
   4.400   1.1881   0.01003   0.00467  -0.1545  0.5871  1.0000  -1.5157   0.0000   0.0000   0.0000   0.3723
   4.500   1.1986   0.01009   0.00472  -0.1544  0.5834  1.0000  -1.5314   0.0000   0.0000   0.0000   0.3709
   4.600   1.2092   0.01017   0.00476  -0.1544  0.5802  1.0000  -1.5472   0.0000   0.0000   0.0000   0.3696
   4.700   1.2196   0.01023   0.00484  -0.1543  0.5761  1.0000  -1.5633   0.0000   0.0000   0.0000   0.3683
   4.800   1.2299   0.01030   0.00490  -0.1542  0.5723  1.0000  -1.5800   0.0000   0.0000   0.0000   0.3670
   4.900   1.2403   0.01038   0.00495  -0.1540  0.5689  1.0000  -1.5968   0.0000   0.0000   0.0000   0.3657
   5.000   1.2505   0.01045   0.00503  -0.1539  0.5644  1.0000  -1.6133   0.0000   0.0000   0.0000   0.3645
   5.100   1.2606   0.01053   0.00509  -0.1538  0.5603  1.0000  -1.6300   0.0000   0.0000   0.0000   0.3632
   5.200   1.2706   0.01061   0.00516  -0.1536  0.5561  1.0000  -1.6466   0.0000   0.0000   0.0000   0.3620
   5.300   1.2806   0.01069   0.00524  -0.1534  0.5514  1.0000  -1.6645   0.0000   0.0000   0.0000   0.3607
   5.500   1.3003   0.01087   0.00540  -0.1530  0.5426  1.0000  -1.7032   0.0000   0.0000   0.0000   0.3583
   5.600   1.3101   0.01097   0.00548  -0.1528  0.5382  1.0000  -1.7227   0.0000   0.0000   0.0000   0.3572
   5.700   1.3199   0.01106   0.00556  -0.1526  0.5339  1.0000  -1.7423   0.0000   0.0000   0.0000   0.3560
   5.800   1.3296   0.01115   0.00565  -0.1524  0.5293  1.0000  -1.7619   0.0000   0.0000   0.0000   0.3548
   5.900   1.3391   0.01127   0.00574  -0.1522  0.5253  1.0000  -1.7813   0.0000   0.0000   0.0000   0.3537
   6.000   1.3487   0.01136   0.00584  -0.1520  0.5204  1.0000  -1.8009   0.0000   0.0000   0.0000   0.3526
   6.100   1.3580   0.01147   0.00593  -0.1517  0.5159  1.0000  -1.8202   0.0000   0.0000   0.0000   0.3514
   6.200   1.3674   0.01158   0.00604  -0.1514  0.5112  1.0000  -1.8443   0.0000   0.0000   0.0000   0.3503
   6.300   1.3765   0.01170   0.00614  -0.1511  0.5064  1.0000  -1.8684   0.0000   0.0000   0.0000   0.3492
   6.400   1.3856   0.01182   0.00625  -0.1508  0.5016  1.0000  -1.8924   0.0000   0.0000   0.0000   0.3481
   6.500   1.3946   0.01194   0.00636  -0.1505  0.4963  1.0000  -1.9164   0.0000   0.0000   0.0000   0.3470
   6.600   1.4033   0.01207   0.00648  -0.1501  0.4915  1.0000  -1.9402   0.0000   0.0000   0.0000   0.3459
   6.700   1.4122   0.01219   0.00660  -0.1498  0.4861  1.0000  -1.9642   0.0000   0.0000   0.0000   0.3449
   6.800   1.4205   0.01235   0.00672  -0.1493  0.4812  1.0000  -1.9877   0.0000   0.0000   0.0000   0.3438
   6.900   1.4293   0.01246   0.00684  -0.1490  0.4757  1.0000  -2.0118   0.0000   0.0000   0.0000   0.3427
   7.100   1.4461   0.01275   0.00711  -0.1481  0.4654  1.0000  -2.0591   0.0000   0.0000   0.0000   0.3406
   7.200   1.4540   0.01291   0.00725  -0.1476  0.4605  1.0000  -2.0823   0.0000   0.0000   0.0000   0.3396
   7.300   1.4623   0.01305   0.00739  -0.1472  0.4552  1.0000  -2.1061   0.0000   0.0000   0.0000   0.3386
   7.400   1.4698   0.01322   0.00754  -0.1466  0.4500  1.0000  -2.1293   0.0000   0.0000   0.0000   0.3375
   7.500   1.4777   0.01337   0.00769  -0.1461  0.4445  1.0000  -2.1593   0.0000   0.0000   0.0000   0.3365
   7.600   1.4848   0.01356   0.00785  -0.1455  0.4391  1.0000  -2.1882   0.0000   0.0000   0.0000   0.3354
   7.700   1.4922   0.01372   0.00801  -0.1449  0.4334  1.0000  -2.2178   0.0000   0.0000   0.0000   0.3344
   7.800   1.4984   0.01391   0.00818  -0.1441  0.4280  1.0000  -2.2456   0.0000   0.0000   0.0000   0.3333
   7.900   1.5050   0.01408   0.00835  -0.1434  0.4224  1.0000  -2.2741   0.0000   0.0000   0.0000   0.3322
   8.000   1.5109   0.01429   0.00853  -0.1426  0.4171  1.0000  -2.3015   0.0000   0.0000   0.0000   0.3311
   8.100   1.5176   0.01447   0.00871  -0.1419  0.4114  1.0000  -2.3303   0.0000   0.0000   0.0000   0.3301
   8.200   1.5232   0.01469   0.00892  -0.1411  0.4062  1.0000  -2.3575   0.0000   0.0000   0.0000   0.3290
   8.300   1.5298   0.01488   0.00911  -0.1404  0.4007  1.0000  -2.3862   0.0000   0.0000   0.0000   0.3280
   8.400   1.5352   0.01513   0.00933  -0.1395  0.3955  1.0000  -2.4131   0.0000   0.0000   0.0000   0.3270
   8.500   1.5414   0.01534   0.00954  -0.1388  0.3900  1.0000  -2.4415   0.0000   0.0000   0.0000   0.3260
   8.600   1.5465   0.01560   0.00978  -0.1379  0.3849  1.0000  -2.4681   0.0000   0.0000   0.0000   0.3249
   8.700   1.5525   0.01583   0.01001  -0.1372  0.3796  1.0000  -2.4962   0.0000   0.0000   0.0000   0.3240
   8.800   1.5574   0.01610   0.01027  -0.1363  0.3747  1.0000  -2.5227   0.0000   0.0000   0.0000   0.3229
   8.900   1.5632   0.01635   0.01053  -0.1355  0.3697  1.0000  -2.5505   0.0000   0.0000   0.0000   0.3220
   9.000   1.5681   0.01664   0.01080  -0.1347  0.3647  1.0000  -2.5771   0.0000   0.0000   0.0000   0.3210
   9.100   1.5735   0.01692   0.01108  -0.1339  0.3595  1.0000  -2.6077   0.0000   0.0000   0.0000   0.3200
   9.200   1.5781   0.01723   0.01138  -0.1331  0.3541  1.0000  -2.6429   0.0000   0.0000   0.0000   0.3191
   9.300   1.5832   0.01753   0.01168  -0.1323  0.3487  1.0000  -2.6816   0.0000   0.0000   0.0000   0.3181
   9.400   1.5873   0.01789   0.01201  -0.1314  0.3432  1.0000  -2.7188   0.0000   0.0000   0.0000   0.3172
   9.500   1.5922   0.01821   0.01233  -0.1306  0.3374  1.0000  -2.7599   0.0000   0.0000   0.0000   0.3163
   9.600   1.5958   0.01861   0.01270  -0.1297  0.3320  1.0000  -2.7977   0.0000   0.0000   0.0000   0.3153
   9.700   1.6007   0.01894   0.01304  -0.1290  0.3263  1.0000  -2.8426   0.0000   0.0000   0.0000   0.3144
   9.800   1.6040   0.01937   0.01345  -0.1280  0.3213  1.0000  -2.8908   0.0000   0.0000   0.0000   0.3135
   9.900   1.6091   0.01972   0.01380  -0.1274  0.3157  1.0000  -2.9450   0.0000   0.0000   0.0000   0.3126
  10.000   1.6123   0.02017   0.01423  -0.1265  0.3110  1.0000  -2.9936   0.0000   0.0000   0.0000   0.3117
  10.100   1.6172   0.02053   0.01460  -0.1258  0.3056  1.0000  -3.0480   0.0000   0.0000   0.0000   0.3109
  10.200   1.6203   0.02101   0.01506  -0.1249  0.3010  1.0000  -3.0964   0.0000   0.0000   0.0000   0.3100
  10.300   1.6252   0.02139   0.01545  -0.1243  0.2957  1.0000  -3.1514   0.0000   0.0000   0.0000   0.3092
  10.400   1.6282   0.02189   0.01593  -0.1234  0.2912  1.0000  -3.1999   0.0000   0.0000   0.0000   0.3084
  10.500   1.6331   0.02228   0.01633  -0.1228  0.2860  1.0000  -3.2555   0.0000   0.0000   0.0000   0.3076
  10.700   1.6405   0.02322   0.01726  -0.1213  0.2763  1.0000  -3.3591   0.0000   0.0000   0.0000   0.3059
  10.900   1.6474   0.02421   0.01825  -0.1198  0.2669  1.0000  -3.4620   0.0000   0.0000   0.0000   0.3043
  11.000   1.6498   0.02479   0.01881  -0.1190  0.2625  1.0000  -3.5100   0.0000   0.0000   0.0000   0.3035
  11.100   1.6536   0.02528   0.01931  -0.1183  0.2574  1.0000  -3.5634   0.0000   0.0000   0.0000   0.3028
  11.200   1.6555   0.02590   0.01991  -0.1175  0.2527  1.0000  -3.6100   0.0000   0.0000   0.0000   0.3020
  11.300   1.6591   0.02642   0.02043  -0.1168  0.2474  1.0000  -3.6629   0.0000   0.0000   0.0000   0.3012
  11.400   1.6607   0.02708   0.02107  -0.1160  0.2426  1.0000  -3.7088   0.0000   0.0000   0.0000   0.3005
  11.500   1.6638   0.02763   0.02163  -0.1153  0.2370  1.0000  -3.7606   0.0000   0.0000   0.0000   0.2997
  11.600   1.6657   0.02829   0.02226  -0.1145  0.2320  1.0000  -3.8081   0.0000   0.0000   0.0000   0.2990
  11.700   1.6680   0.02891   0.02288  -0.1138  0.2265  1.0000  -3.8573   0.0000   0.0000   0.0000   0.2983
  11.800   1.6703   0.02955   0.02352  -0.1131  0.2213  1.0000  -3.9065   0.0000   0.0000   0.0000   0.2975
  11.900   1.6716   0.03026   0.02421  -0.1123  0.2162  1.0000  -3.9524   0.0000   0.0000   0.0000   0.2968
  12.000   1.6740   0.03090   0.02484  -0.1116  0.2110  1.0000  -4.0026   0.0000   0.0000   0.0000   0.2961
  12.100   1.6749   0.03165   0.02558  -0.1108  0.2064  1.0000  -4.0468   0.0000   0.0000   0.0000   0.2954
  12.200   1.6773   0.03230   0.02623  -0.1102  0.2012  1.0000  -4.0972   0.0000   0.0000   0.0000   0.2947
  12.300   1.6783   0.03305   0.02697  -0.1094  0.1967  1.0000  -4.1426   0.0000   0.0000   0.0000   0.2940
  12.400   1.6801   0.03376   0.02768  -0.1087  0.1919  1.0000  -4.1907   0.0000   0.0000   0.0000   0.2933
  12.500   1.6813   0.03452   0.02843  -0.1080  0.1874  1.0000  -4.2369   0.0000   0.0000   0.0000   0.2926
  12.600   1.6825   0.03528   0.02919  -0.1073  0.1827  1.0000  -4.2834   0.0000   0.0000   0.0000   0.2920
  12.700   1.6840   0.03604   0.02994  -0.1067  0.1782  1.0000  -4.3308   0.0000   0.0000   0.0000   0.2913
  12.800   1.6848   0.03686   0.03075  -0.1060  0.1737  1.0000  -4.3758   0.0000   0.0000   0.0000   0.2907
  12.900   1.6864   0.03761   0.03151  -0.1054  0.1690  1.0000  -4.4241   0.0000   0.0000   0.0000   0.2900
  13.000   1.6866   0.03849   0.03238  -0.1047  0.1648  1.0000  -4.4667   0.0000   0.0000   0.0000   0.2894
  13.100   1.6882   0.03926   0.03315  -0.1041  0.1602  1.0000  -4.5155   0.0000   0.0000   0.0000   0.2888
  13.200   1.6882   0.04019   0.03406  -0.1034  0.1563  1.0000  -4.5575   0.0000   0.0000   0.0000   0.2881
  13.300   1.6896   0.04099   0.03487  -0.1028  0.1520  1.0000  -4.6056   0.0000   0.0000   0.0000   0.2875
  13.400   1.6895   0.04195   0.03581  -0.1022  0.1484  1.0000  -4.6472   0.0000   0.0000   0.0000   0.2869
  13.500   1.6908   0.04278   0.03666  -0.1016  0.1443  1.0000  -4.6947   0.0000   0.0000   0.0000   0.2864
  13.600   1.6903   0.04379   0.03766  -0.1010  0.1410  1.0000  -4.7352   0.0000   0.0000   0.0000   0.2858
  13.700   1.6919   0.04462   0.03850  -0.1005  0.1370  1.0000  -4.7841   0.0000   0.0000   0.0000   0.2852
  13.800   1.6914   0.04565   0.03952  -0.0999  0.1336  1.0000  -4.8246   0.0000   0.0000   0.0000   0.2847
  13.900   1.6927   0.04651   0.04040  -0.0994  0.1299  1.0000  -4.8728   0.0000   0.0000   0.0000   0.2841
  14.000   1.6922   0.04755   0.04144  -0.0989  0.1268  1.0000  -4.9130   0.0000   0.0000   0.0000   0.2836
  14.100   1.6932   0.04846   0.04236  -0.0984  0.1233  1.0000  -4.9599   0.0000   0.0000   0.0000   0.2830
  14.200   1.6928   0.04951   0.04341  -0.0979  0.1202  1.0000  -5.0010   0.0000   0.0000   0.0000   0.2825
  14.300   1.6933   0.05049   0.04439  -0.0974  0.1170  1.0000  -5.0459   0.0000   0.0000   0.0000   0.2820
  14.400   1.6931   0.05154   0.04545  -0.0969  0.1139  1.0000  -5.0881   0.0000   0.0000   0.0000   0.2815
  14.500   1.6929   0.05261   0.04653  -0.0965  0.1111  1.0000  -5.1299   0.0000   0.0000   0.0000   0.2810
  14.600   1.6930   0.05366   0.04758  -0.0961  0.1080  1.0000  -5.1731   0.0000   0.0000   0.0000   0.2805
  14.700   1.6918   0.05485   0.04877  -0.0956  0.1055  1.0000  -5.2107   0.0000   0.0000   0.0000   0.2801
  14.800   1.6925   0.05585   0.04980  -0.0952  0.1025  1.0000  -5.2564   0.0000   0.0000   0.0000   0.2796
  14.900   1.6914   0.05706   0.05101  -0.0948  0.0999  1.0000  -5.2944   0.0000   0.0000   0.0000   0.2792
  15.000   1.6915   0.05814   0.05211  -0.0945  0.0973  1.0000  -5.3377   0.0000   0.0000   0.0000   0.2787
  15.100   1.6909   0.05930   0.05328  -0.0941  0.0946  1.0000  -5.3782   0.0000   0.0000   0.0000   0.2783
  15.200   1.6896   0.06055   0.05453  -0.0937  0.0924  1.0000  -5.4149   0.0000   0.0000   0.0000   0.2779
  15.300   1.6899   0.06162   0.05563  -0.0934  0.0897  1.0000  -5.4593   0.0000   0.0000   0.0000   0.2775
  15.400   1.6885   0.06290   0.05691  -0.0931  0.0875  1.0000  -5.4958   0.0000   0.0000   0.0000   0.2771
  15.500   1.6880   0.06408   0.05811  -0.0928  0.0853  1.0000  -5.5365   0.0000   0.0000   0.0000   0.2767
  15.600   1.6875   0.06528   0.05933  -0.0925  0.0830  1.0000  -5.5771   0.0000   0.0000   0.0000   0.2763
  15.700   1.6857   0.06664   0.06069  -0.0923  0.0810  1.0000  -5.6117   0.0000   0.0000   0.0000   0.2760
  15.800   1.6853   0.06783   0.06192  -0.0920  0.0790  1.0000  -5.6528   0.0000   0.0000   0.0000   0.2756
  15.900   1.6844   0.06911   0.06321  -0.0918  0.0770  1.0000  -5.6913   0.0000   0.0000   0.0000   0.2753
  16.000   1.6822   0.07055   0.06466  -0.0916  0.0753  1.0000  -5.7235   0.0000   0.0000   0.0000   0.2750
  16.100   1.6817   0.07179   0.06593  -0.0914  0.0734  1.0000  -5.7637   0.0000   0.0000   0.0000   0.2746
  16.200   1.6808   0.07310   0.06726  -0.0912  0.0716  1.0000  -5.8020   0.0000   0.0000   0.0000   0.2743
  16.300   1.6785   0.07457   0.06875  -0.0910  0.0700  1.0000  -5.8336   0.0000   0.0000   0.0000   0.2741
  16.400   1.6772   0.07594   0.07015  -0.0909  0.0684  1.0000  -5.8696   0.0000   0.0000   0.0000   0.2738
  16.500   1.6761   0.07727   0.07150  -0.0908  0.0667  1.0000  -5.9071   0.0000   0.0000   0.0000   0.2735
  16.600   1.6740   0.07874   0.07299  -0.0906  0.0651  1.0000  -5.9391   0.0000   0.0000   0.0000   0.2732
  16.700   1.6708   0.08037   0.07463  -0.0906  0.0639  1.0000  -5.9653   0.0000   0.0000   0.0000   0.2731
  16.800   1.6706   0.08161   0.07591  -0.0905  0.0622  1.0000  -6.0066   0.0000   0.0000   0.0000   0.2728
  16.900   1.6688   0.08307   0.07740  -0.0904  0.0606  1.0000  -6.0398   0.0000   0.0000   0.0000   0.2725
  17.000   1.6660   0.08467   0.07902  -0.0904  0.0593  1.0000  -6.0678   0.0000   0.0000   0.0000   0.2724
  17.100   1.6639   0.08620   0.08058  -0.0904  0.0580  1.0000  -6.0989   0.0000   0.0000   0.0000   0.2722
  17.200   1.6627   0.08761   0.08202  -0.0904  0.0565  1.0000  -6.1344   0.0000   0.0000   0.0000   0.2720
  17.300   1.6602   0.08921   0.08364  -0.0904  0.0552  1.0000  -6.1634   0.0000   0.0000   0.0000   0.2718
  17.400   1.6567   0.09094   0.08539  -0.0905  0.0541  1.0000  -6.1872   0.0000   0.0000   0.0000   0.2717
  17.500   1.6550   0.09245   0.08693  -0.0905  0.0528  1.0000  -6.2195   0.0000   0.0000   0.0000   0.2716
  17.600   1.6534   0.09394   0.08846  -0.0906  0.0514  1.0000  -6.2523   0.0000   0.0000   0.0000   0.2714
  17.700   1.6506   0.09562   0.09016  -0.0907  0.0502  1.0000  -6.2785   0.0000   0.0000   0.0000   0.2713
  17.800   1.6468   0.09743   0.09199  -0.0909  0.0492  1.0000  -6.2994   0.0000   0.0000   0.0000   0.2713
  17.900   1.6450   0.09898   0.09358  -0.0910  0.0480  1.0000  -6.3302   0.0000   0.0000   0.0000   0.2712
  18.000   1.6427   0.10057   0.09520  -0.0912  0.0468  1.0000  -6.3588   0.0000   0.0000   0.0000   0.2711
  18.100   1.6395   0.10232   0.09698  -0.0914  0.0457  1.0000  -6.3818   0.0000   0.0000   0.0000   0.2711
  18.200   1.6354   0.10419   0.09887  -0.0916  0.0449  1.0000  -6.4001   0.0000   0.0000   0.0000   0.2712
  18.300   1.6324   0.10594   0.10065  -0.0919  0.0439  1.0000  -6.4230   0.0000   0.0000   0.0000   0.2712
  18.400   1.6303   0.10756   0.10231  -0.0921  0.0428  1.0000  -6.4508   0.0000   0.0000   0.0000   0.2711
  18.500   1.6271   0.10934   0.10412  -0.0924  0.0418  1.0000  -6.4726   0.0000   0.0000   0.0000   0.2712
  18.600   1.6233   0.11122   0.10603  -0.0927  0.0410  1.0000  -6.4908   0.0000   0.0000   0.0000   0.2713
  18.700   1.6184   0.11328   0.10810  -0.0932  0.0403  1.0000  -6.5060   0.0000   0.0000   0.0000   0.2714
  18.800   1.6162   0.11496   0.10982  -0.0935  0.0394  1.0000  -6.5389   0.0000   0.0000   0.0000   0.2715
  18.900   1.6137   0.11667   0.11158  -0.0939  0.0385  1.0000  -6.5701   0.0000   0.0000   0.0000   0.2715
  19.000   1.6106   0.11848   0.11342  -0.0943  0.0376  1.0000  -6.5973   0.0000   0.0000   0.0000   0.2716
  19.100   1.6067   0.12044   0.11540  -0.0948  0.0369  1.0000  -6.6187   0.0000   0.0000   0.0000   0.2718
  19.200   1.6021   0.12250   0.11748  -0.0953  0.0364  1.0000  -6.6353   0.0000   0.0000   0.0000   0.2721
  19.300   1.5985   0.12444   0.11945  -0.0959  0.0357  1.0000  -6.6571   0.0000   0.0000   0.0000   0.2723
  19.400   1.5968   0.12606   0.12112  -0.0963  0.0348  1.0000  -6.6915   0.0000   0.0000   0.0000   0.2724
  19.500   1.5942   0.12783   0.12292  -0.0968  0.0341  1.0000  -6.7200   0.0000   0.0000   0.0000   0.2725
  19.600   1.5911   0.12967   0.12480  -0.0974  0.0335  1.0000  -6.7446   0.0000   0.0000   0.0000   0.2728
  19.700   1.5873   0.13165   0.12680  -0.0980  0.0329  1.0000  -6.7640   0.0000   0.0000   0.0000   0.2730
  19.800   1.5829   0.13370   0.12887  -0.0987  0.0324  1.0000  -6.7792   0.0000   0.0000   0.0000   0.2734
  19.900   1.5792   0.13570   0.13089  -0.0994  0.0319  1.0000  -6.7971   0.0000   0.0000   0.0000   0.2737
  20.000   1.5777   0.13732   0.13256  -0.0999  0.0312  1.0000  -6.8308   0.0000   0.0000   0.0000   0.2739


