xflr5 v6.57

 Calculated polar for: rev_root_140

 1 1 Reynolds number fixed          Mach number fixed         

 xtrf =   1.000 (top)        1.000 (bottom)
 Mach =   0.000     Re =     0.820 e 6     Ncrit =   9.000

  alpha     CL        CD       CDp       Cm    Top Xtr Bot Xtr   Cpmin    Chinge    XCp    
 ------- -------- --------- --------- -------- ------- ------- -------- --------- ---------
  -9.900  -0.3974   0.01999   0.01524  -0.1475  0.8118  0.0191  -6.4084   0.0000   0.0000   0.0000  -0.1440
  -9.800  -0.3871   0.01966   0.01484  -0.1477  0.8102  0.0193  -6.3128   0.0000   0.0000   0.0000  -0.1546
  -9.700  -0.3767   0.01937   0.01448  -0.1479  0.8088  0.0194  -6.2150   0.0000   0.0000   0.0000  -0.1660
  -9.600  -0.3661   0.01914   0.01417  -0.1481  0.8074  0.0196  -6.1152   0.0000   0.0000   0.0000  -0.1782
  -9.500  -0.3553   0.01893   0.01391  -0.1483  0.8058  0.0197  -6.0134   0.0000   0.0000   0.0000  -0.1913
  -9.400  -0.3454   0.01843   0.01333  -0.1485  0.8041  0.0199  -5.9292   0.0000   0.0000   0.0000  -0.2044
  -9.300  -0.3366   0.01753   0.01236  -0.1489  0.8024  0.0202  -5.8644   0.0000   0.0000   0.0000  -0.2168
  -9.200  -0.3266   0.01708   0.01187  -0.1491  0.8009  0.0204  -5.7743   0.0000   0.0000   0.0000  -0.2314
  -9.100  -0.3161   0.01675   0.01151  -0.1492  0.7996  0.0205  -5.6779   0.0000   0.0000   0.0000  -0.2474
  -9.000  -0.3055   0.01649   0.01121  -0.1494  0.7983  0.0207  -5.5791   0.0000   0.0000   0.0000  -0.2649
  -8.900  -0.2947   0.01624   0.01095  -0.1495  0.7968  0.0209  -5.4798   0.0000   0.0000   0.0000  -0.2838
  -8.800  -0.2838   0.01600   0.01069  -0.1497  0.7953  0.0211  -5.3808   0.0000   0.0000   0.0000  -0.3043
  -8.700  -0.2730   0.01578   0.01043  -0.1498  0.7937  0.0213  -5.2825   0.0000   0.0000   0.0000  -0.3264
  -8.600  -0.2620   0.01555   0.01018  -0.1500  0.7922  0.0215  -5.1851   0.0000   0.0000   0.0000  -0.3505
  -8.500  -0.2511   0.01533   0.00992  -0.1501  0.7909  0.0217  -5.0888   0.0000   0.0000   0.0000  -0.3767
  -8.400  -0.2401   0.01512   0.00967  -0.1502  0.7896  0.0219  -4.9933   0.0000   0.0000   0.0000  -0.4054
  -8.300  -0.2291   0.01491   0.00941  -0.1503  0.7885  0.0221  -4.9023   0.0000   0.0000   0.0000  -0.4370
  -8.200  -0.2180   0.01469   0.00917  -0.1505  0.7870  0.0223  -4.8157   0.0000   0.0000   0.0000  -0.4719
  -8.100  -0.2070   0.01448   0.00893  -0.1506  0.7855  0.0225  -4.7296   0.0000   0.0000   0.0000  -0.5106
  -8.000  -0.1958   0.01428   0.00869  -0.1507  0.7841  0.0227  -4.6438   0.0000   0.0000   0.0000  -0.5538
  -7.900  -0.1847   0.01409   0.00846  -0.1508  0.7827  0.0229  -4.5581   0.0000   0.0000   0.0000  -0.6024
  -7.800  -0.1735   0.01391   0.00825  -0.1509  0.7815  0.0231  -4.4725   0.0000   0.0000   0.0000  -0.6575
  -7.700  -0.1622   0.01376   0.00805  -0.1510  0.7802  0.0232  -4.3867   0.0000   0.0000   0.0000  -0.7204
  -7.600  -0.1509   0.01362   0.00787  -0.1511  0.7791  0.0234  -4.3007   0.0000   0.0000   0.0000  -0.7931
  -7.500  -0.1402   0.01323   0.00745  -0.1513  0.7777  0.0237  -4.2328   0.0000   0.0000   0.0000  -0.8735
  -7.400  -0.1293   0.01291   0.00712  -0.1515  0.7761  0.0240  -4.1614   0.0000   0.0000   0.0000  -0.9685
  -7.300  -0.1181   0.01271   0.00691  -0.1516  0.7746  0.0243  -4.0829   0.0000   0.0000   0.0000  -1.0838
  -7.200  -0.1069   0.01256   0.00675  -0.1517  0.7731  0.0246  -4.0025   0.0000   0.0000   0.0000  -1.2246
  -7.100  -0.0955   0.01243   0.00660  -0.1518  0.7717  0.0249  -3.9225   0.0000   0.0000   0.0000  -1.3995
  -7.000  -0.0842   0.01230   0.00645  -0.1520  0.7705  0.0252  -3.8437   0.0000   0.0000   0.0000  -1.6222
  -6.900  -0.0728   0.01218   0.00630  -0.1521  0.7694  0.0255  -3.7663   0.0000   0.0000   0.0000  -1.9157
  -6.800  -0.0614   0.01204   0.00614  -0.1522  0.7681  0.0258  -3.6905   0.0000   0.0000   0.0000  -2.3182
  -6.700  -0.0500   0.01190   0.00599  -0.1523  0.7667  0.0261  -3.6158   0.0000   0.0000   0.0000  -2.9034
  -6.600  -0.0386   0.01176   0.00583  -0.1524  0.7652  0.0264  -3.5416   0.0000   0.0000   0.0000  -3.8366
  -6.500  -0.0271   0.01164   0.00568  -0.1525  0.7638  0.0267  -3.4677   0.0000   0.0000   0.0000  -5.5596
  -6.400  -0.0157   0.01152   0.00554  -0.1526  0.7625  0.0270  -3.3940   0.0000   0.0000   0.0000  -9.8104
  -6.300  -0.0042   0.01142   0.00541  -0.1527  0.7612  0.0272  -3.3203   0.0000   0.0000   0.0000  -37.4901
  -6.200   0.0072   0.01123   0.00519  -0.1528  0.7600  0.0275  -3.2508   0.0000   0.0000   0.0000  22.0998
  -6.100   0.0186   0.01104   0.00497  -0.1530  0.7589  0.0280  -3.1806   0.0000   0.0000   0.0000   8.7144
  -6.000   0.0301   0.01089   0.00483  -0.1531  0.7576  0.0284  -3.1076   0.0000   0.0000   0.0000   5.4958
  -5.900   0.0416   0.01078   0.00472  -0.1532  0.7562  0.0289  -3.0337   0.0000   0.0000   0.0000   4.0456
  -5.800   0.0531   0.01069   0.00462  -0.1534  0.7549  0.0294  -2.9601   0.0000   0.0000   0.0000   3.2219
  -5.700   0.0647   0.01060   0.00452  -0.1535  0.7535  0.0299  -2.8876   0.0000   0.0000   0.0000   2.6913
  -5.600   0.0762   0.01051   0.00441  -0.1536  0.7523  0.0305  -2.8161   0.0000   0.0000   0.0000   2.3209
  -5.500   0.0878   0.01043   0.00431  -0.1537  0.7511  0.0310  -2.7456   0.0000   0.0000   0.0000   2.0477
  -5.400   0.0994   0.01036   0.00421  -0.1538  0.7499  0.0314  -2.6778   0.0000   0.0000   0.0000   1.8376
  -5.300   0.1110   0.01020   0.00403  -0.1539  0.7488  0.0321  -2.6186   0.0000   0.0000   0.0000   1.6726
  -5.200   0.1226   0.01007   0.00391  -0.1540  0.7474  0.0329  -2.5565   0.0000   0.0000   0.0000   1.5392
  -5.100   0.1341   0.00998   0.00382  -0.1541  0.7460  0.0337  -2.4938   0.0000   0.0000   0.0000   1.4282
  -5.000   0.1457   0.00989   0.00372  -0.1543  0.7445  0.0346  -2.4321   0.0000   0.0000   0.0000   1.3345
  -4.900   0.1573   0.00982   0.00363  -0.1543  0.7431  0.0356  -2.3713   0.0000   0.0000   0.0000   1.2545
  -4.800   0.1689   0.00970   0.00350  -0.1545  0.7418  0.0368  -2.3126   0.0000   0.0000   0.0000   1.1857
  -4.700   0.1805   0.00960   0.00340  -0.1546  0.7405  0.0383  -2.2520   0.0000   0.0000   0.0000   1.1257
  -4.600   0.1922   0.00953   0.00331  -0.1547  0.7393  0.0400  -2.1920   0.0000   0.0000   0.0000   1.0727
  -4.500   0.2038   0.00943   0.00321  -0.1548  0.7380  0.0422  -2.1336   0.0000   0.0000   0.0000   1.0260
  -4.400   0.2154   0.00933   0.00313  -0.1549  0.7364  0.0448  -2.0740   0.0000   0.0000   0.0000   0.9844
  -4.300   0.2270   0.00924   0.00305  -0.1550  0.7349  0.0478  -2.0150   0.0000   0.0000   0.0000   0.9470
  -4.200   0.2386   0.00918   0.00298  -0.1551  0.7334  0.0511  -1.9587   0.0000   0.0000   0.0000   0.9131
  -4.100   0.2502   0.00909   0.00292  -0.1553  0.7320  0.0548  -1.9048   0.0000   0.0000   0.0000   0.8825
  -4.000   0.2618   0.00903   0.00286  -0.1554  0.7307  0.0585  -1.8511   0.0000   0.0000   0.0000   0.8544
  -3.900   0.2735   0.00898   0.00280  -0.1555  0.7295  0.0625  -1.7972   0.0000   0.0000   0.0000   0.8287
  -3.800   0.2852   0.00891   0.00274  -0.1556  0.7283  0.0666  -1.7436   0.0000   0.0000   0.0000   0.8052
  -3.700   0.2968   0.00884   0.00269  -0.1557  0.7268  0.0708  -1.6905   0.0000   0.0000   0.0000   0.7836
  -3.500   0.3200   0.00870   0.00259  -0.1559  0.7239  0.0810  -1.5846   0.0000   0.0000   0.0000   0.7450
  -3.400   0.3316   0.00864   0.00254  -0.1561  0.7225  0.0871  -1.5321   0.0000   0.0000   0.0000   0.7277
  -3.300   0.3433   0.00858   0.00250  -0.1562  0.7212  0.0936  -1.4799   0.0000   0.0000   0.0000   0.7116
  -3.200   0.3549   0.00852   0.00245  -0.1563  0.7200  0.1005  -1.4281   0.0000   0.0000   0.0000   0.6965
  -3.100   0.3666   0.00848   0.00241  -0.1564  0.7187  0.1077  -1.3766   0.0000   0.0000   0.0000   0.6824
  -3.000   0.3782   0.00842   0.00238  -0.1566  0.7173  0.1155  -1.3257   0.0000   0.0000   0.0000   0.6692
  -2.900   0.3898   0.00835   0.00235  -0.1567  0.7156  0.1240  -1.2753   0.0000   0.0000   0.0000   0.6568
  -2.800   0.4014   0.00830   0.00232  -0.1568  0.7139  0.1331  -1.2253   0.0000   0.0000   0.0000   0.6451
  -2.700   0.4130   0.00824   0.00229  -0.1569  0.7123  0.1424  -1.1757   0.0000   0.0000   0.0000   0.6340
  -2.600   0.4246   0.00819   0.00226  -0.1570  0.7107  0.1520  -1.1266   0.0000   0.0000   0.0000   0.6236
  -2.500   0.4362   0.00814   0.00223  -0.1571  0.7093  0.1620  -1.0778   0.0000   0.0000   0.0000   0.6137
  -2.400   0.4479   0.00811   0.00221  -0.1572  0.7079  0.1727  -1.0320   0.0000   0.0000   0.0000   0.6043
  -2.300   0.4594   0.00805   0.00219  -0.1574  0.7063  0.1837  -0.9884   0.0000   0.0000   0.0000   0.5954
  -2.200   0.4710   0.00800   0.00217  -0.1575  0.7046  0.1952  -0.9451   0.0000   0.0000   0.0000   0.5869
  -2.100   0.4826   0.00794   0.00215  -0.1576  0.7029  0.2070  -0.9022   0.0000   0.0000   0.0000   0.5789
  -2.000   0.4942   0.00789   0.00214  -0.1577  0.7014  0.2194  -0.8597   0.0000   0.0000   0.0000   0.5712
  -1.900   0.5059   0.00785   0.00212  -0.1578  0.7000  0.2324  -0.8324   0.0000   0.0000   0.0000   0.5638
  -1.800   0.5175   0.00782   0.00211  -0.1580  0.6986  0.2446  -0.8404   0.0000   0.0000   0.0000   0.5568
  -1.700   0.5292   0.00779   0.00209  -0.1581  0.6972  0.2554  -0.8484   0.0000   0.0000   0.0000   0.5501
  -1.600   0.5407   0.00774   0.00209  -0.1582  0.6955  0.2667  -0.8563   0.0000   0.0000   0.0000   0.5437
  -1.500   0.5523   0.00770   0.00208  -0.1583  0.6937  0.2792  -0.8643   0.0000   0.0000   0.0000   0.5375
  -1.400   0.5639   0.00766   0.00207  -0.1584  0.6919  0.2929  -0.8723   0.0000   0.0000   0.0000   0.5316
  -1.300   0.5755   0.00762   0.00207  -0.1585  0.6903  0.3063  -0.8803   0.0000   0.0000   0.0000   0.5259
  -1.200   0.5871   0.00759   0.00206  -0.1586  0.6888  0.3195  -0.8883   0.0000   0.0000   0.0000   0.5205
  -1.100   0.5987   0.00756   0.00205  -0.1587  0.6874  0.3347  -0.8964   0.0000   0.0000   0.0000   0.5152
  -1.000   0.6103   0.00752   0.00206  -0.1589  0.6856  0.3510  -0.9044   0.0000   0.0000   0.0000   0.5102
  -0.900   0.6219   0.00747   0.00206  -0.1590  0.6836  0.3669  -0.9131   0.0000   0.0000   0.0000   0.5054
  -0.800   0.6334   0.00743   0.00206  -0.1591  0.6816  0.3823  -0.9222   0.0000   0.0000   0.0000   0.5007
  -0.700   0.6450   0.00739   0.00205  -0.1592  0.6797  0.3977  -0.9314   0.0000   0.0000   0.0000   0.4962
  -0.600   0.6565   0.00736   0.00205  -0.1593  0.6779  0.4138  -0.9406   0.0000   0.0000   0.0000   0.4918
  -0.500   0.6680   0.00734   0.00205  -0.1594  0.6761  0.4300  -0.9498   0.0000   0.0000   0.0000   0.4876
  -0.400   0.6796   0.00729   0.00206  -0.1595  0.6739  0.4471  -0.9592   0.0000   0.0000   0.0000   0.4835
  -0.300   0.6911   0.00725   0.00206  -0.1596  0.6717  0.4648  -0.9686   0.0000   0.0000   0.0000   0.4796
  -0.200   0.7026   0.00722   0.00207  -0.1597  0.6697  0.4821  -0.9781   0.0000   0.0000   0.0000   0.4758
  -0.100   0.7141   0.00719   0.00207  -0.1598  0.6679  0.4998  -0.9876   0.0000   0.0000   0.0000   0.4721
   0.000   0.7256   0.00717   0.00208  -0.1599  0.6663  0.5192  -0.9970   0.0000   0.0000   0.0000   0.4685
   0.100   0.7372   0.00712   0.00210  -0.1600  0.6643  0.5414  -1.0065   0.0000   0.0000   0.0000   0.4651
   0.200   0.7487   0.00708   0.00212  -0.1601  0.6621  0.5634  -1.0160   0.0000   0.0000   0.0000   0.4617
   0.300   0.7602   0.00704   0.00214  -0.1602  0.6601  0.5845  -1.0255   0.0000   0.0000   0.0000   0.4585
   0.400   0.7716   0.00702   0.00215  -0.1602  0.6581  0.6048  -1.0350   0.0000   0.0000   0.0000   0.4553
   0.600   0.7943   0.00698   0.00220  -0.1603  0.6542  0.6463  -1.0540   0.0000   0.0000   0.0000   0.4492
   0.700   0.8057   0.00695   0.00223  -0.1604  0.6517  0.6671  -1.0634   0.0000   0.0000   0.0000   0.4462
   0.800   0.8170   0.00693   0.00225  -0.1604  0.6492  0.6867  -1.0729   0.0000   0.0000   0.0000   0.4434
   0.900   0.8281   0.00693   0.00227  -0.1604  0.6467  0.7040  -1.0836   0.0000   0.0000   0.0000   0.4406
   1.000   0.8391   0.00693   0.00229  -0.1603  0.6444  0.7204  -1.0943   0.0000   0.0000   0.0000   0.4378
   1.100   0.8504   0.00692   0.00232  -0.1603  0.6415  0.7356  -1.1052   0.0000   0.0000   0.0000   0.4352
   1.200   0.8615   0.00692   0.00234  -0.1603  0.6387  0.7484  -1.1160   0.0000   0.0000   0.0000   0.4326
   1.300   0.8725   0.00694   0.00236  -0.1603  0.6361  0.7594  -1.1267   0.0000   0.0000   0.0000   0.4300
   1.400   0.8835   0.00696   0.00239  -0.1602  0.6338  0.7698  -1.1375   0.0000   0.0000   0.0000   0.4275
   1.500   0.8947   0.00695   0.00242  -0.1602  0.6310  0.7803  -1.1487   0.0000   0.0000   0.0000   0.4251
   1.600   0.9057   0.00696   0.00244  -0.1602  0.6283  0.7909  -1.1598   0.0000   0.0000   0.0000   0.4228
   1.700   0.9166   0.00698   0.00247  -0.1601  0.6259  0.8010  -1.1709   0.0000   0.0000   0.0000   0.4205
   1.800   0.9274   0.00700   0.00249  -0.1600  0.6236  0.8109  -1.1818   0.0000   0.0000   0.0000   0.4182
   1.900   0.9384   0.00700   0.00252  -0.1600  0.6209  0.8209  -1.1930   0.0000   0.0000   0.0000   0.4160
   2.000   0.9492   0.00701   0.00255  -0.1599  0.6181  0.8311  -1.2040   0.0000   0.0000   0.0000   0.4138
   2.100   0.9598   0.00702   0.00258  -0.1597  0.6153  0.8411  -1.2161   0.0000   0.0000   0.0000   0.4117
   2.300   0.9808   0.00705   0.00264  -0.1594  0.6095  0.8607  -1.2420   0.0000   0.0000   0.0000   0.4075
   2.400   0.9911   0.00706   0.00266  -0.1592  0.6061  0.8707  -1.2549   0.0000   0.0000   0.0000   0.4055
   2.500   1.0010   0.00708   0.00269  -0.1589  0.6029  0.8814  -1.2675   0.0000   0.0000   0.0000   0.4035
   2.600   1.0108   0.00708   0.00271  -0.1586  0.5995  0.8937  -1.2800   0.0000   0.0000   0.0000   0.4015
   2.700   1.0201   0.00708   0.00274  -0.1582  0.5958  0.9073  -1.2923   0.0000   0.0000   0.0000   0.3995
   2.800   1.0286   0.00708   0.00275  -0.1575  0.5924  0.9245  -1.3039   0.0000   0.0000   0.0000   0.3975
   2.900   1.0366   0.00705   0.00275  -0.1568  0.5892  0.9512  -1.3153   0.0000   0.0000   0.0000   0.3955
   3.000   1.0487   0.00705   0.00275  -0.1570  0.5854  1.0000  -1.3295   0.0000   0.0000   0.0000   0.3938
   3.100   1.0598   0.00710   0.00279  -0.1570  0.5820  1.0000  -1.3431   0.0000   0.0000   0.0000   0.3921
   3.200   1.0710   0.00716   0.00282  -0.1571  0.5789  1.0000  -1.3567   0.0000   0.0000   0.0000   0.3905
   3.300   1.0823   0.00720   0.00286  -0.1572  0.5754  1.0000  -1.3705   0.0000   0.0000   0.0000   0.3889
   3.400   1.0934   0.00726   0.00289  -0.1572  0.5719  1.0000  -1.3841   0.0000   0.0000   0.0000   0.3873
   3.500   1.1043   0.00733   0.00294  -0.1572  0.5686  1.0000  -1.3977   0.0000   0.0000   0.0000   0.3857
   3.600   1.1155   0.00737   0.00298  -0.1573  0.5649  1.0000  -1.4114   0.0000   0.0000   0.0000   0.3842
   3.700   1.1264   0.00743   0.00302  -0.1573  0.5611  1.0000  -1.4250   0.0000   0.0000   0.0000   0.3827
   3.800   1.1372   0.00750   0.00307  -0.1572  0.5577  1.0000  -1.4388   0.0000   0.0000   0.0000   0.3813
   3.900   1.1483   0.00755   0.00311  -0.1573  0.5537  1.0000  -1.4530   0.0000   0.0000   0.0000   0.3798
   4.000   1.1590   0.00762   0.00316  -0.1573  0.5498  1.0000  -1.4681   0.0000   0.0000   0.0000   0.3784
   4.100   1.1697   0.00770   0.00321  -0.1572  0.5460  1.0000  -1.4833   0.0000   0.0000   0.0000   0.3770
   4.200   1.1806   0.00775   0.00326  -0.1572  0.5417  1.0000  -1.4991   0.0000   0.0000   0.0000   0.3756
   4.300   1.1910   0.00784   0.00332  -0.1571  0.5375  1.0000  -1.5147   0.0000   0.0000   0.0000   0.3742
   4.400   1.2018   0.00790   0.00337  -0.1571  0.5331  1.0000  -1.5306   0.0000   0.0000   0.0000   0.3729
   4.500   1.2123   0.00798   0.00343  -0.1570  0.5284  1.0000  -1.5464   0.0000   0.0000   0.0000   0.3716
   4.600   1.2226   0.00806   0.00350  -0.1569  0.5242  1.0000  -1.5622   0.0000   0.0000   0.0000   0.3702
   4.700   1.2333   0.00813   0.00356  -0.1569  0.5196  1.0000  -1.5791   0.0000   0.0000   0.0000   0.3690
   4.800   1.2434   0.00823   0.00363  -0.1568  0.5153  1.0000  -1.5957   0.0000   0.0000   0.0000   0.3677
   4.900   1.2540   0.00830   0.00369  -0.1567  0.5110  1.0000  -1.6127   0.0000   0.0000   0.0000   0.3664
   5.000   1.2643   0.00839   0.00376  -0.1566  0.5066  1.0000  -1.6295   0.0000   0.0000   0.0000   0.3652
   5.100   1.2744   0.00848   0.00383  -0.1565  0.5024  1.0000  -1.6461   0.0000   0.0000   0.0000   0.3640
   5.200   1.2849   0.00856   0.00390  -0.1564  0.4977  1.0000  -1.6632   0.0000   0.0000   0.0000   0.3628
   5.300   1.2947   0.00867   0.00398  -0.1562  0.4931  1.0000  -1.6827   0.0000   0.0000   0.0000   0.3615
   5.400   1.3051   0.00875   0.00405  -0.1562  0.4885  1.0000  -1.7028   0.0000   0.0000   0.0000   0.3604
   5.500   1.3149   0.00885   0.00414  -0.1560  0.4835  1.0000  -1.7225   0.0000   0.0000   0.0000   0.3592
   5.600   1.3249   0.00895   0.00422  -0.1558  0.4786  1.0000  -1.7423   0.0000   0.0000   0.0000   0.3581
   5.700   1.3348   0.00905   0.00430  -0.1557  0.4732  1.0000  -1.7620   0.0000   0.0000   0.0000   0.3569
   5.800   1.3445   0.00916   0.00439  -0.1555  0.4681  1.0000  -1.7817   0.0000   0.0000   0.0000   0.3558
   5.900   1.3543   0.00927   0.00448  -0.1553  0.4626  1.0000  -1.8015   0.0000   0.0000   0.0000   0.3547
   6.000   1.3638   0.00938   0.00457  -0.1551  0.4574  1.0000  -1.8211   0.0000   0.0000   0.0000   0.3535
   6.100   1.3735   0.00949   0.00466  -0.1549  0.4520  1.0000  -1.8452   0.0000   0.0000   0.0000   0.3524
   6.200   1.3829   0.00961   0.00476  -0.1546  0.4471  1.0000  -1.8696   0.0000   0.0000   0.0000   0.3513
   6.300   1.3925   0.00972   0.00486  -0.1544  0.4419  1.0000  -1.8944   0.0000   0.0000   0.0000   0.3503
   6.400   1.4016   0.00986   0.00497  -0.1541  0.4370  1.0000  -1.9185   0.0000   0.0000   0.0000   0.3492
   6.500   1.4111   0.00997   0.00507  -0.1539  0.4314  1.0000  -1.9434   0.0000   0.0000   0.0000   0.3481
   6.600   1.4199   0.01011   0.00518  -0.1535  0.4260  1.0000  -1.9674   0.0000   0.0000   0.0000   0.3471
   6.700   1.4292   0.01024   0.00529  -0.1533  0.4200  1.0000  -1.9920   0.0000   0.0000   0.0000   0.3460
   6.800   1.4379   0.01038   0.00541  -0.1529  0.4145  1.0000  -2.0160   0.0000   0.0000   0.0000   0.3450
   6.900   1.4469   0.01051   0.00553  -0.1526  0.4085  1.0000  -2.0405   0.0000   0.0000   0.0000   0.3440
   7.000   1.4555   0.01066   0.00565  -0.1522  0.4028  1.0000  -2.0646   0.0000   0.0000   0.0000   0.3429
   7.100   1.4640   0.01081   0.00578  -0.1519  0.3968  1.0000  -2.0887   0.0000   0.0000   0.0000   0.3419
   7.200   1.4726   0.01096   0.00590  -0.1515  0.3911  1.0000  -2.1128   0.0000   0.0000   0.0000   0.3409
   7.300   1.4806   0.01113   0.00604  -0.1510  0.3850  1.0000  -2.1374   0.0000   0.0000   0.0000   0.3398
   7.400   1.4890   0.01128   0.00617  -0.1506  0.3791  1.0000  -2.1684   0.0000   0.0000   0.0000   0.3388
   7.600   1.5048   0.01161   0.00646  -0.1496  0.3676  1.0000  -2.2292   0.0000   0.0000   0.0000   0.3368
   7.700   1.5116   0.01179   0.00662  -0.1489  0.3623  1.0000  -2.2580   0.0000   0.0000   0.0000   0.3358
   7.800   1.5193   0.01194   0.00676  -0.1484  0.3565  1.0000  -2.2884   0.0000   0.0000   0.0000   0.3347
   7.900   1.5261   0.01213   0.00692  -0.1477  0.3509  1.0000  -2.3175   0.0000   0.0000   0.0000   0.3337
   8.000   1.5332   0.01231   0.00708  -0.1471  0.3448  1.0000  -2.3472   0.0000   0.0000   0.0000   0.3327
   8.100   1.5400   0.01250   0.00725  -0.1465  0.3391  1.0000  -2.3764   0.0000   0.0000   0.0000   0.3317
   8.200   1.5465   0.01271   0.00743  -0.1457  0.3329  1.0000  -2.4052   0.0000   0.0000   0.0000   0.3306
   8.300   1.5531   0.01291   0.00761  -0.1451  0.3269  1.0000  -2.4344   0.0000   0.0000   0.0000   0.3296
   8.400   1.5588   0.01315   0.00782  -0.1442  0.3209  1.0000  -2.4620   0.0000   0.0000   0.0000   0.3286
   8.500   1.5652   0.01336   0.00802  -0.1436  0.3146  1.0000  -2.4911   0.0000   0.0000   0.0000   0.3276
   8.600   1.5710   0.01361   0.00823  -0.1428  0.3087  1.0000  -2.5190   0.0000   0.0000   0.0000   0.3266
   8.700   1.5765   0.01387   0.00847  -0.1420  0.3025  1.0000  -2.5467   0.0000   0.0000   0.0000   0.3256
   8.800   1.5825   0.01411   0.00869  -0.1412  0.2965  1.0000  -2.5752   0.0000   0.0000   0.0000   0.3246
   8.900   1.5877   0.01439   0.00894  -0.1404  0.2907  1.0000  -2.6023   0.0000   0.0000   0.0000   0.3237
   9.000   1.5939   0.01463   0.00917  -0.1397  0.2848  1.0000  -2.6356   0.0000   0.0000   0.0000   0.3227
   9.100   1.5993   0.01490   0.00942  -0.1389  0.2796  1.0000  -2.6752   0.0000   0.0000   0.0000   0.3218
   9.200   1.6052   0.01516   0.00967  -0.1382  0.2742  1.0000  -2.7185   0.0000   0.0000   0.0000   0.3208
   9.300   1.6106   0.01545   0.00994  -0.1375  0.2694  1.0000  -2.7690   0.0000   0.0000   0.0000   0.3199
   9.400   1.6161   0.01574   0.01021  -0.1368  0.2644  1.0000  -2.8244   0.0000   0.0000   0.0000   0.3190
   9.500   1.6215   0.01604   0.01049  -0.1360  0.2600  1.0000  -2.8798   0.0000   0.0000   0.0000   0.3181
   9.600   1.6271   0.01633   0.01078  -0.1353  0.2554  1.0000  -2.9363   0.0000   0.0000   0.0000   0.3172
   9.700   1.6322   0.01666   0.01109  -0.1346  0.2511  1.0000  -2.9914   0.0000   0.0000   0.0000   0.3163
   9.800   1.6377   0.01696   0.01139  -0.1339  0.2463  1.0000  -3.0483   0.0000   0.0000   0.0000   0.3154
   9.900   1.6423   0.01732   0.01173  -0.1332  0.2418  1.0000  -3.1028   0.0000   0.0000   0.0000   0.3146
  10.000   1.6476   0.01765   0.01206  -0.1325  0.2369  1.0000  -3.1594   0.0000   0.0000   0.0000   0.3137
  10.100   1.6521   0.01803   0.01242  -0.1317  0.2320  1.0000  -3.2139   0.0000   0.0000   0.0000   0.3128
  10.200   1.6568   0.01841   0.01278  -0.1310  0.2265  1.0000  -3.2694   0.0000   0.0000   0.0000   0.3120
  10.300   1.6612   0.01881   0.01316  -0.1303  0.2213  1.0000  -3.3245   0.0000   0.0000   0.0000   0.3112
  10.500   1.6694   0.01965   0.01396  -0.1287  0.2105  1.0000  -3.4328   0.0000   0.0000   0.0000   0.3095
  10.600   1.6730   0.02012   0.01441  -0.1279  0.2053  1.0000  -3.4856   0.0000   0.0000   0.0000   0.3086
  10.700   1.6769   0.02058   0.01485  -0.1272  0.1998  1.0000  -3.5396   0.0000   0.0000   0.0000   0.3078
  10.800   1.6807   0.02104   0.01529  -0.1264  0.1948  1.0000  -3.5937   0.0000   0.0000   0.0000   0.3070
  10.900   1.6838   0.02156   0.01579  -0.1256  0.1898  1.0000  -3.6453   0.0000   0.0000   0.0000   0.3062
  11.000   1.6878   0.02201   0.01623  -0.1249  0.1848  1.0000  -3.7008   0.0000   0.0000   0.0000   0.3054
  11.100   1.6909   0.02254   0.01674  -0.1241  0.1802  1.0000  -3.7529   0.0000   0.0000   0.0000   0.3046
  11.200   1.6948   0.02301   0.01720  -0.1235  0.1752  1.0000  -3.8084   0.0000   0.0000   0.0000   0.3039
  11.300   1.6981   0.02354   0.01771  -0.1227  0.1706  1.0000  -3.8619   0.0000   0.0000   0.0000   0.3031
  11.400   1.7012   0.02407   0.01823  -0.1220  0.1657  1.0000  -3.9152   0.0000   0.0000   0.0000   0.3023
  11.500   1.7046   0.02460   0.01874  -0.1213  0.1611  1.0000  -3.9693   0.0000   0.0000   0.0000   0.3016
  11.700   1.7103   0.02573   0.01984  -0.1198  0.1523  1.0000  -4.0749   0.0000   0.0000   0.0000   0.3001
  11.800   1.7126   0.02635   0.02045  -0.1190  0.1482  1.0000  -4.1255   0.0000   0.0000   0.0000   0.2993
  11.900   1.7156   0.02691   0.02101  -0.1183  0.1441  1.0000  -4.1792   0.0000   0.0000   0.0000   0.2986
  12.000   1.7178   0.02754   0.02162  -0.1175  0.1404  1.0000  -4.2301   0.0000   0.0000   0.0000   0.2979
  12.100   1.7208   0.02812   0.02220  -0.1169  0.1362  1.0000  -4.2842   0.0000   0.0000   0.0000   0.2971
  12.200   1.7230   0.02876   0.02283  -0.1161  0.1324  1.0000  -4.3354   0.0000   0.0000   0.0000   0.2964
  12.300   1.7254   0.02939   0.02345  -0.1154  0.1284  1.0000  -4.3877   0.0000   0.0000   0.0000   0.2957
  12.400   1.7275   0.03005   0.02409  -0.1147  0.1248  1.0000  -4.4390   0.0000   0.0000   0.0000   0.2950
  12.500   1.7294   0.03072   0.02475  -0.1140  0.1209  1.0000  -4.4897   0.0000   0.0000   0.0000   0.2943
  12.600   1.7314   0.03138   0.02542  -0.1133  0.1174  1.0000  -4.5407   0.0000   0.0000   0.0000   0.2936
  12.700   1.7330   0.03209   0.02611  -0.1125  0.1137  1.0000  -4.5907   0.0000   0.0000   0.0000   0.2929
  12.800   1.7348   0.03278   0.02680  -0.1118  0.1104  1.0000  -4.6415   0.0000   0.0000   0.0000   0.2923
  12.900   1.7363   0.03351   0.02752  -0.1111  0.1071  1.0000  -4.6910   0.0000   0.0000   0.0000   0.2916
  13.000   1.7381   0.03423   0.02824  -0.1105  0.1040  1.0000  -4.7418   0.0000   0.0000   0.0000   0.2909
  13.100   1.7397   0.03497   0.02897  -0.1098  0.1009  1.0000  -4.7922   0.0000   0.0000   0.0000   0.2903
  13.200   1.7412   0.03572   0.02972  -0.1091  0.0980  1.0000  -4.8422   0.0000   0.0000   0.0000   0.2896
  13.300   1.7430   0.03645   0.03046  -0.1085  0.0950  1.0000  -4.8939   0.0000   0.0000   0.0000   0.2890
  13.400   1.7441   0.03726   0.03125  -0.1079  0.0924  1.0000  -4.9424   0.0000   0.0000   0.0000   0.2884
  13.500   1.7462   0.03797   0.03198  -0.1073  0.0897  1.0000  -4.9955   0.0000   0.0000   0.0000   0.2877
  13.600   1.7471   0.03880   0.03280  -0.1066  0.0871  1.0000  -5.0437   0.0000   0.0000   0.0000   0.2871
  13.700   1.7491   0.03954   0.03355  -0.1061  0.0847  1.0000  -5.0965   0.0000   0.0000   0.0000   0.2865
  13.800   1.7504   0.04035   0.03437  -0.1055  0.0822  1.0000  -5.1467   0.0000   0.0000   0.0000   0.2859
  13.900   1.7515   0.04119   0.03520  -0.1049  0.0800  1.0000  -5.1961   0.0000   0.0000   0.0000   0.2853
  14.000   1.7532   0.04198   0.03601  -0.1044  0.0778  1.0000  -5.2483   0.0000   0.0000   0.0000   0.2847
  14.100   1.7540   0.04287   0.03689  -0.1038  0.0757  1.0000  -5.2964   0.0000   0.0000   0.0000   0.2842
  14.200   1.7555   0.04369   0.03773  -0.1033  0.0737  1.0000  -5.3479   0.0000   0.0000   0.0000   0.2836
  14.300   1.7569   0.04454   0.03859  -0.1028  0.0716  1.0000  -5.3990   0.0000   0.0000   0.0000   0.2830
  14.400   1.7575   0.04547   0.03952  -0.1023  0.0697  1.0000  -5.4465   0.0000   0.0000   0.0000   0.2825
  14.500   1.7589   0.04632   0.04038  -0.1018  0.0679  1.0000  -5.4980   0.0000   0.0000   0.0000   0.2819
  14.600   1.7600   0.04721   0.04129  -0.1013  0.0661  1.0000  -5.5478   0.0000   0.0000   0.0000   0.2814
  14.700   1.7602   0.04818   0.04225  -0.1008  0.0644  1.0000  -5.5943   0.0000   0.0000   0.0000   0.2809
  14.800   1.7615   0.04907   0.04316  -0.1003  0.0628  1.0000  -5.6451   0.0000   0.0000   0.0000   0.2804
  14.900   1.7625   0.04998   0.04409  -0.0999  0.0609  1.0000  -5.6954   0.0000   0.0000   0.0000   0.2798
  15.000   1.7626   0.05100   0.04511  -0.0994  0.0592  1.0000  -5.7411   0.0000   0.0000   0.0000   0.2793
  15.100   1.7634   0.05196   0.04608  -0.0990  0.0577  1.0000  -5.7904   0.0000   0.0000   0.0000   0.2788
  15.200   1.7642   0.05292   0.04706  -0.0986  0.0560  1.0000  -5.8396   0.0000   0.0000   0.0000   0.2784
  15.300   1.7639   0.05401   0.04816  -0.0982  0.0544  1.0000  -5.8838   0.0000   0.0000   0.0000   0.2779
  15.400   1.7645   0.05501   0.04917  -0.0978  0.0529  1.0000  -5.9325   0.0000   0.0000   0.0000   0.2774
  15.500   1.7652   0.05601   0.05019  -0.0974  0.0512  1.0000  -5.9815   0.0000   0.0000   0.0000   0.2769
  15.600   1.7649   0.05713   0.05132  -0.0970  0.0496  1.0000  -6.0254   0.0000   0.0000   0.0000   0.2765
  15.700   1.7650   0.05819   0.05240  -0.0967  0.0482  1.0000  -6.0720   0.0000   0.0000   0.0000   0.2761
  15.800   1.7652   0.05928   0.05350  -0.0963  0.0467  1.0000  -6.1184   0.0000   0.0000   0.0000   0.2756
  15.900   1.7645   0.06044   0.05467  -0.0960  0.0453  1.0000  -6.1611   0.0000   0.0000   0.0000   0.2752
  16.000   1.7638   0.06161   0.05585  -0.0957  0.0440  1.0000  -6.2036   0.0000   0.0000   0.0000   0.2748
  16.100   1.7638   0.06271   0.05698  -0.0953  0.0427  1.0000  -6.2496   0.0000   0.0000   0.0000   0.2744
  16.200   1.7631   0.06392   0.05819  -0.0950  0.0414  1.0000  -6.2917   0.0000   0.0000   0.0000   0.2740
  16.400   1.7615   0.06636   0.06067  -0.0945  0.0392  1.0000  -6.3757   0.0000   0.0000   0.0000   0.2732
  16.500   1.7609   0.06758   0.06191  -0.0942  0.0381  1.0000  -6.4184   0.0000   0.0000   0.0000   0.2729
  16.600   1.7597   0.06887   0.06322  -0.0940  0.0370  1.0000  -6.4581   0.0000   0.0000   0.0000   0.2725
  16.700   1.7576   0.07028   0.06464  -0.0938  0.0360  1.0000  -6.4935   0.0000   0.0000   0.0000   0.2722
  16.800   1.7578   0.07142   0.06581  -0.0936  0.0350  1.0000  -6.5402   0.0000   0.0000   0.0000   0.2718
  16.900   1.7571   0.07269   0.06710  -0.0934  0.0340  1.0000  -6.5822   0.0000   0.0000   0.0000   0.2715
  17.000   1.7556   0.07405   0.06848  -0.0932  0.0330  1.0000  -6.6203   0.0000   0.0000   0.0000   0.2712
  17.200   1.7529   0.07676   0.07125  -0.0929  0.0313  1.0000  -6.6977   0.0000   0.0000   0.0000   0.2706
  17.300   1.7520   0.07807   0.07258  -0.0928  0.0304  1.0000  -6.7383   0.0000   0.0000   0.0000   0.2703
  17.400   1.7501   0.07949   0.07402  -0.0927  0.0296  1.0000  -6.7742   0.0000   0.0000   0.0000   0.2701
  17.500   1.7479   0.08096   0.07552  -0.0926  0.0288  1.0000  -6.8078   0.0000   0.0000   0.0000   0.2698
  17.600   1.7461   0.08240   0.07698  -0.0925  0.0281  1.0000  -6.8436   0.0000   0.0000   0.0000   0.2696
  17.700   1.7451   0.08374   0.07835  -0.0924  0.0273  1.0000  -6.8837   0.0000   0.0000   0.0000   0.2693
  17.800   1.7434   0.08518   0.07982  -0.0924  0.0265  1.0000  -6.9196   0.0000   0.0000   0.0000   0.2691
  17.900   1.7412   0.08669   0.08135  -0.0924  0.0258  1.0000  -6.9533   0.0000   0.0000   0.0000   0.2689
  18.000   1.7384   0.08829   0.08298  -0.0924  0.0251  1.0000  -6.9833   0.0000   0.0000   0.0000   0.2687
  18.100   1.7366   0.08978   0.08449  -0.0924  0.0245  1.0000  -7.0182   0.0000   0.0000   0.0000   0.2685
  18.200   1.7349   0.09126   0.08600  -0.0924  0.0239  1.0000  -7.0579   0.0000   0.0000   0.0000   0.2683
  18.300   1.7327   0.09280   0.08757  -0.0925  0.0233  1.0000  -7.0984   0.0000   0.0000   0.0000   0.2682
  18.400   1.7302   0.09439   0.08919  -0.0926  0.0228  1.0000  -7.1369   0.0000   0.0000   0.0000   0.2680
  18.500   1.7272   0.09606   0.09089  -0.0927  0.0223  1.0000  -7.1720   0.0000   0.0000   0.0000   0.2679
  18.700   1.7218   0.09934   0.09423  -0.0929  0.0213  1.0000  -7.2452   0.0000   0.0000   0.0000   0.2677
  18.800   1.7197   0.10089   0.09581  -0.0931  0.0209  1.0000  -7.2854   0.0000   0.0000   0.0000   0.2676
  18.900   1.7170   0.10254   0.09749  -0.0932  0.0205  1.0000  -7.3216   0.0000   0.0000   0.0000   0.2675
  19.000   1.7142   0.10419   0.09917  -0.0934  0.0201  1.0000  -7.3571   0.0000   0.0000   0.0000   0.2675
  19.100   1.7109   0.10593   0.10095  -0.0936  0.0197  1.0000  -7.3889   0.0000   0.0000   0.0000   0.2675
  19.200   1.7075   0.10770   0.10274  -0.0939  0.0193  1.0000  -7.4201   0.0000   0.0000   0.0000   0.2674
  19.300   1.7035   0.10957   0.10464  -0.0942  0.0190  1.0000  -7.4465   0.0000   0.0000   0.0000   0.2675
  19.400   1.7000   0.11136   0.10647  -0.0945  0.0186  1.0000  -7.4759   0.0000   0.0000   0.0000   0.2675
  19.500   1.6979   0.11299   0.10813  -0.0948  0.0183  1.0000  -7.5140   0.0000   0.0000   0.0000   0.2675
  19.600   1.6956   0.11461   0.10980  -0.0951  0.0180  1.0000  -7.5515   0.0000   0.0000   0.0000   0.2675
  19.700   1.6928   0.11635   0.11157  -0.0955  0.0177  1.0000  -7.5846   0.0000   0.0000   0.0000   0.2675
  19.800   1.6900   0.11807   0.11332  -0.0958  0.0174  1.0000  -7.6180   0.0000   0.0000   0.0000   0.2676
  19.900   1.6867   0.11989   0.11517  -0.0963  0.0171  1.0000  -7.6473   0.0000   0.0000   0.0000   0.2677
  20.000   1.6835   0.12171   0.11702  -0.0967  0.0168  1.0000  -7.6767   0.0000   0.0000   0.0000   0.2678


