xflr5 v6.57

 Calculated polar for: rev_root_140

 1 1 Reynolds number fixed          Mach number fixed         

 xtrf =   1.000 (top)        1.000 (bottom)
 Mach =   0.000     Re =     0.860 e 6     Ncrit =   9.000

  alpha     CL        CD       CDp       Cm    Top Xtr Bot Xtr   Cpmin    Chinge    XCp    
 ------- -------- --------- --------- -------- ------- ------- -------- --------- ---------
 -10.000  -0.4094   0.01970   0.01500  -0.1474  0.8107  0.0186  -6.5454   0.0000   0.0000   0.0000  -0.1325
  -9.900  -0.3993   0.01935   0.01459  -0.1476  0.8092  0.0188  -6.4489   0.0000   0.0000   0.0000  -0.1424
  -9.800  -0.3890   0.01903   0.01421  -0.1478  0.8078  0.0190  -6.3511   0.0000   0.0000   0.0000  -0.1530
  -9.700  -0.3785   0.01873   0.01385  -0.1480  0.8062  0.0192  -6.2523   0.0000   0.0000   0.0000  -0.1643
  -9.600  -0.3679   0.01846   0.01353  -0.1482  0.8045  0.0193  -6.1527   0.0000   0.0000   0.0000  -0.1763
  -9.500  -0.3572   0.01822   0.01323  -0.1484  0.8028  0.0195  -6.0523   0.0000   0.0000   0.0000  -0.1892
  -9.400  -0.3465   0.01801   0.01296  -0.1485  0.8013  0.0196  -5.9511   0.0000   0.0000   0.0000  -0.2030
  -9.300  -0.3356   0.01782   0.01272  -0.1487  0.7999  0.0197  -5.8494   0.0000   0.0000   0.0000  -0.2177
  -9.200  -0.3257   0.01727   0.01208  -0.1489  0.7986  0.0199  -5.7689   0.0000   0.0000   0.0000  -0.2322
  -9.100  -0.3164   0.01653   0.01127  -0.1492  0.7972  0.0202  -5.6968   0.0000   0.0000   0.0000  -0.2469
  -9.000  -0.3061   0.01610   0.01082  -0.1494  0.7956  0.0204  -5.6061   0.0000   0.0000   0.0000  -0.2638
  -8.900  -0.2955   0.01579   0.01049  -0.1496  0.7940  0.0206  -5.5094   0.0000   0.0000   0.0000  -0.2824
  -8.800  -0.2847   0.01554   0.01022  -0.1497  0.7925  0.0207  -5.4104   0.0000   0.0000   0.0000  -0.3026
  -8.700  -0.2738   0.01532   0.00997  -0.1498  0.7911  0.0209  -5.3109   0.0000   0.0000   0.0000  -0.3247
  -8.600  -0.2629   0.01511   0.00973  -0.1500  0.7898  0.0211  -5.2117   0.0000   0.0000   0.0000  -0.3486
  -8.500  -0.2519   0.01492   0.00950  -0.1501  0.7886  0.0213  -5.1132   0.0000   0.0000   0.0000  -0.3748
  -8.400  -0.2408   0.01471   0.00928  -0.1502  0.7872  0.0215  -5.0156   0.0000   0.0000   0.0000  -0.4035
  -8.300  -0.2298   0.01451   0.00905  -0.1504  0.7857  0.0217  -4.9235   0.0000   0.0000   0.0000  -0.4351
  -8.200  -0.2187   0.01431   0.00883  -0.1505  0.7842  0.0219  -4.8351   0.0000   0.0000   0.0000  -0.4699
  -8.100  -0.2076   0.01411   0.00860  -0.1506  0.7828  0.0221  -4.7474   0.0000   0.0000   0.0000  -0.5085
  -8.000  -0.1964   0.01392   0.00837  -0.1507  0.7816  0.0223  -4.6604   0.0000   0.0000   0.0000  -0.5516
  -7.900  -0.1852   0.01374   0.00815  -0.1509  0.7804  0.0226  -4.5738   0.0000   0.0000   0.0000  -0.5999
  -7.800  -0.1740   0.01357   0.00794  -0.1510  0.7792  0.0227  -4.4875   0.0000   0.0000   0.0000  -0.6547
  -7.700  -0.1628   0.01340   0.00774  -0.1511  0.7780  0.0229  -4.4016   0.0000   0.0000   0.0000  -0.7172
  -7.600  -0.1515   0.01324   0.00755  -0.1512  0.7764  0.0231  -4.3158   0.0000   0.0000   0.0000  -0.7891
  -7.500  -0.1402   0.01309   0.00737  -0.1513  0.7749  0.0233  -4.2372   0.0000   0.0000   0.0000  -0.8729
  -7.400  -0.1288   0.01298   0.00723  -0.1514  0.7734  0.0234  -4.1576   0.0000   0.0000   0.0000  -0.9718
  -7.300  -0.1182   0.01254   0.00676  -0.1516  0.7720  0.0238  -4.0941   0.0000   0.0000   0.0000  -1.0831
  -7.200  -0.1070   0.01231   0.00651  -0.1517  0.7707  0.0242  -4.0182   0.0000   0.0000   0.0000  -1.2221
  -7.100  -0.0957   0.01216   0.00634  -0.1519  0.7695  0.0245  -3.9387   0.0000   0.0000   0.0000  -1.3961
  -7.000  -0.0844   0.01203   0.00620  -0.1520  0.7683  0.0248  -3.8589   0.0000   0.0000   0.0000  -1.6183
  -6.900  -0.0730   0.01190   0.00606  -0.1521  0.7668  0.0251  -3.7802   0.0000   0.0000   0.0000  -1.9099
  -6.800  -0.0616   0.01177   0.00592  -0.1522  0.7654  0.0254  -3.7029   0.0000   0.0000   0.0000  -2.3101
  -6.700  -0.0502   0.01164   0.00577  -0.1523  0.7640  0.0257  -3.6268   0.0000   0.0000   0.0000  -2.8932
  -6.600  -0.0387   0.01151   0.00563  -0.1524  0.7627  0.0260  -3.5515   0.0000   0.0000   0.0000  -3.8216
  -6.500  -0.0273   0.01139   0.00548  -0.1525  0.7614  0.0263  -3.4768   0.0000   0.0000   0.0000  -5.5314
  -6.400  -0.0158   0.01128   0.00533  -0.1526  0.7602  0.0266  -3.4026   0.0000   0.0000   0.0000  -9.7361
  -6.300  -0.0043   0.01118   0.00520  -0.1527  0.7591  0.0269  -3.3286   0.0000   0.0000   0.0000  -36.7354
  -6.200   0.0072   0.01107   0.00508  -0.1528  0.7577  0.0271  -3.2549   0.0000   0.0000   0.0000  22.0067
  -6.100   0.0188   0.01096   0.00495  -0.1529  0.7563  0.0274  -3.1824   0.0000   0.0000   0.0000   8.6610
  -6.000   0.0301   0.01072   0.00471  -0.1531  0.7550  0.0279  -3.1141   0.0000   0.0000   0.0000   5.4861
  -5.900   0.0416   0.01058   0.00456  -0.1533  0.7537  0.0284  -3.0415   0.0000   0.0000   0.0000   4.0419
  -5.800   0.0532   0.01048   0.00445  -0.1534  0.7524  0.0288  -2.9676   0.0000   0.0000   0.0000   3.2196
  -5.700   0.0647   0.01039   0.00435  -0.1535  0.7512  0.0294  -2.8941   0.0000   0.0000   0.0000   2.6895
  -5.600   0.0763   0.01032   0.00426  -0.1536  0.7501  0.0299  -2.8218   0.0000   0.0000   0.0000   2.3193
  -5.500   0.0879   0.01025   0.00416  -0.1537  0.7490  0.0305  -2.7505   0.0000   0.0000   0.0000   2.0459
  -5.400   0.0995   0.01016   0.00406  -0.1538  0.7476  0.0310  -2.6830   0.0000   0.0000   0.0000   1.8370
  -5.300   0.1111   0.01009   0.00397  -0.1539  0.7462  0.0314  -2.6203   0.0000   0.0000   0.0000   1.6714
  -5.200   0.1227   0.00991   0.00380  -0.1540  0.7448  0.0323  -2.5611   0.0000   0.0000   0.0000   1.5381
  -5.100   0.1342   0.00980   0.00369  -0.1542  0.7435  0.0331  -2.4986   0.0000   0.0000   0.0000   1.4272
  -5.000   0.1458   0.00972   0.00360  -0.1543  0.7422  0.0340  -2.4360   0.0000   0.0000   0.0000   1.3337
  -4.900   0.1575   0.00965   0.00351  -0.1544  0.7409  0.0350  -2.3746   0.0000   0.0000   0.0000   1.2538
  -4.800   0.1691   0.00960   0.00343  -0.1545  0.7397  0.0359  -2.3138   0.0000   0.0000   0.0000   1.1846
  -4.700   0.1807   0.00947   0.00330  -0.1546  0.7384  0.0376  -2.2548   0.0000   0.0000   0.0000   1.1248
  -4.600   0.1923   0.00937   0.00322  -0.1547  0.7369  0.0393  -2.1945   0.0000   0.0000   0.0000   1.0723
  -4.500   0.2039   0.00929   0.00313  -0.1548  0.7354  0.0414  -2.1356   0.0000   0.0000   0.0000   1.0255
  -4.400   0.2155   0.00918   0.00304  -0.1549  0.7339  0.0440  -2.0760   0.0000   0.0000   0.0000   0.9839
  -4.300   0.2271   0.00910   0.00295  -0.1550  0.7324  0.0469  -2.0168   0.0000   0.0000   0.0000   0.9465
  -4.200   0.2388   0.00903   0.00289  -0.1552  0.7311  0.0503  -1.9603   0.0000   0.0000   0.0000   0.9127
  -4.100   0.2504   0.00896   0.00282  -0.1553  0.7299  0.0538  -1.9063   0.0000   0.0000   0.0000   0.8820
  -4.000   0.2621   0.00892   0.00277  -0.1554  0.7287  0.0575  -1.8523   0.0000   0.0000   0.0000   0.8539
  -3.900   0.2737   0.00884   0.00272  -0.1555  0.7273  0.0615  -1.7984   0.0000   0.0000   0.0000   0.8284
  -3.800   0.2853   0.00877   0.00266  -0.1556  0.7258  0.0654  -1.7448   0.0000   0.0000   0.0000   0.8049
  -3.700   0.2969   0.00871   0.00261  -0.1557  0.7244  0.0696  -1.6914   0.0000   0.0000   0.0000   0.7832
  -3.600   0.3086   0.00864   0.00256  -0.1558  0.7230  0.0743  -1.6382   0.0000   0.0000   0.0000   0.7632
  -3.500   0.3202   0.00857   0.00250  -0.1560  0.7216  0.0795  -1.5853   0.0000   0.0000   0.0000   0.7447
  -3.400   0.3319   0.00851   0.00246  -0.1561  0.7204  0.0853  -1.5326   0.0000   0.0000   0.0000   0.7274
  -3.300   0.3435   0.00847   0.00242  -0.1562  0.7192  0.0917  -1.4803   0.0000   0.0000   0.0000   0.7113
  -3.200   0.3552   0.00842   0.00238  -0.1563  0.7179  0.0984  -1.4283   0.0000   0.0000   0.0000   0.6962
  -3.100   0.3668   0.00836   0.00234  -0.1564  0.7164  0.1055  -1.3770   0.0000   0.0000   0.0000   0.6822
  -3.000   0.3784   0.00829   0.00231  -0.1566  0.7147  0.1130  -1.3261   0.0000   0.0000   0.0000   0.6690
  -2.900   0.3900   0.00823   0.00228  -0.1567  0.7131  0.1212  -1.2756   0.0000   0.0000   0.0000   0.6566
  -2.800   0.4016   0.00818   0.00224  -0.1568  0.7115  0.1300  -1.2255   0.0000   0.0000   0.0000   0.6449
  -2.700   0.4132   0.00813   0.00221  -0.1569  0.7101  0.1392  -1.1758   0.0000   0.0000   0.0000   0.6338
  -2.600   0.4249   0.00809   0.00218  -0.1570  0.7087  0.1486  -1.1266   0.0000   0.0000   0.0000   0.6233
  -2.500   0.4365   0.00804   0.00216  -0.1571  0.7072  0.1583  -1.0779   0.0000   0.0000   0.0000   0.6135
  -2.400   0.4481   0.00798   0.00214  -0.1572  0.7055  0.1687  -1.0321   0.0000   0.0000   0.0000   0.6041
  -2.300   0.4597   0.00793   0.00212  -0.1574  0.7038  0.1798  -0.9883   0.0000   0.0000   0.0000   0.5952
  -2.200   0.4713   0.00788   0.00210  -0.1575  0.7022  0.1911  -0.9450   0.0000   0.0000   0.0000   0.5867
  -2.100   0.4829   0.00783   0.00208  -0.1576  0.7007  0.2025  -0.9020   0.0000   0.0000   0.0000   0.5787
  -2.000   0.4946   0.00779   0.00206  -0.1577  0.6993  0.2145  -0.8595   0.0000   0.0000   0.0000   0.5710
  -1.900   0.5062   0.00775   0.00205  -0.1579  0.6980  0.2273  -0.8327   0.0000   0.0000   0.0000   0.5636
  -1.800   0.5178   0.00771   0.00204  -0.1580  0.6965  0.2400  -0.8407   0.0000   0.0000   0.0000   0.5566
  -1.700   0.5294   0.00766   0.00203  -0.1581  0.6948  0.2510  -0.8486   0.0000   0.0000   0.0000   0.5499
  -1.600   0.5410   0.00762   0.00202  -0.1582  0.6930  0.2618  -0.8566   0.0000   0.0000   0.0000   0.5435
  -1.500   0.5526   0.00758   0.00201  -0.1583  0.6913  0.2738  -0.8646   0.0000   0.0000   0.0000   0.5374
  -1.400   0.5642   0.00755   0.00200  -0.1584  0.6897  0.2874  -0.8727   0.0000   0.0000   0.0000   0.5315
  -1.300   0.5759   0.00752   0.00199  -0.1585  0.6883  0.3010  -0.8807   0.0000   0.0000   0.0000   0.5258
  -1.200   0.5875   0.00750   0.00198  -0.1586  0.6869  0.3139  -0.8887   0.0000   0.0000   0.0000   0.5203
  -1.000   0.6107   0.00740   0.00199  -0.1589  0.6831  0.3437  -0.9047   0.0000   0.0000   0.0000   0.5101
  -0.900   0.6222   0.00736   0.00198  -0.1590  0.6812  0.3600  -0.9134   0.0000   0.0000   0.0000   0.5052
  -0.800   0.6338   0.00732   0.00198  -0.1591  0.6793  0.3755  -0.9226   0.0000   0.0000   0.0000   0.5006
  -0.600   0.6569   0.00726   0.00198  -0.1593  0.6757  0.4058  -0.9410   0.0000   0.0000   0.0000   0.4917
  -0.500   0.6684   0.00722   0.00198  -0.1594  0.6734  0.4223  -0.9502   0.0000   0.0000   0.0000   0.4875
  -0.400   0.6800   0.00718   0.00199  -0.1595  0.6712  0.4390  -0.9596   0.0000   0.0000   0.0000   0.4834
  -0.300   0.6915   0.00715   0.00199  -0.1596  0.6693  0.4560  -0.9690   0.0000   0.0000   0.0000   0.4795
  -0.200   0.7030   0.00712   0.00199  -0.1597  0.6675  0.4734  -0.9785   0.0000   0.0000   0.0000   0.4757
  -0.100   0.7145   0.00711   0.00200  -0.1598  0.6659  0.4907  -0.9880   0.0000   0.0000   0.0000   0.4720
   0.000   0.7261   0.00706   0.00201  -0.1599  0.6638  0.5088  -0.9975   0.0000   0.0000   0.0000   0.4684
   0.100   0.7377   0.00702   0.00203  -0.1600  0.6617  0.5298  -1.0070   0.0000   0.0000   0.0000   0.4650
   0.200   0.7492   0.00698   0.00205  -0.1601  0.6597  0.5522  -1.0165   0.0000   0.0000   0.0000   0.4616
   0.400   0.7721   0.00693   0.00208  -0.1603  0.6560  0.5935  -1.0355   0.0000   0.0000   0.0000   0.4552
   0.500   0.7836   0.00691   0.00210  -0.1604  0.6539  0.6140  -1.0450   0.0000   0.0000   0.0000   0.4521
   0.600   0.7950   0.00687   0.00212  -0.1604  0.6514  0.6349  -1.0545   0.0000   0.0000   0.0000   0.4491
   0.700   0.8063   0.00685   0.00215  -0.1605  0.6490  0.6556  -1.0640   0.0000   0.0000   0.0000   0.4462
   0.800   0.8175   0.00684   0.00217  -0.1605  0.6466  0.6761  -1.0734   0.0000   0.0000   0.0000   0.4433
   0.900   0.8287   0.00684   0.00219  -0.1605  0.6442  0.6940  -1.0840   0.0000   0.0000   0.0000   0.4405
   1.000   0.8400   0.00682   0.00222  -0.1605  0.6414  0.7110  -1.0949   0.0000   0.0000   0.0000   0.4378
   1.100   0.8511   0.00682   0.00225  -0.1605  0.6386  0.7267  -1.1058   0.0000   0.0000   0.0000   0.4352
   1.200   0.8622   0.00683   0.00227  -0.1604  0.6360  0.7405  -1.1165   0.0000   0.0000   0.0000   0.4326
   1.300   0.8732   0.00684   0.00229  -0.1604  0.6336  0.7522  -1.1273   0.0000   0.0000   0.0000   0.4300
   1.400   0.8845   0.00684   0.00232  -0.1604  0.6308  0.7628  -1.1382   0.0000   0.0000   0.0000   0.4276
   1.500   0.8956   0.00685   0.00234  -0.1604  0.6281  0.7734  -1.1494   0.0000   0.0000   0.0000   0.4252
   1.600   0.9066   0.00687   0.00237  -0.1604  0.6257  0.7839  -1.1605   0.0000   0.0000   0.0000   0.4228
   1.700   0.9175   0.00689   0.00240  -0.1603  0.6235  0.7943  -1.1715   0.0000   0.0000   0.0000   0.4205
   1.800   0.9286   0.00689   0.00243  -0.1603  0.6208  0.8041  -1.1827   0.0000   0.0000   0.0000   0.4182
   1.900   0.9396   0.00690   0.00245  -0.1602  0.6180  0.8139  -1.1938   0.0000   0.0000   0.0000   0.4160
   2.000   0.9503   0.00691   0.00248  -0.1601  0.6152  0.8239  -1.2048   0.0000   0.0000   0.0000   0.4139
   2.200   0.9717   0.00694   0.00254  -0.1599  0.6095  0.8435  -1.2301   0.0000   0.0000   0.0000   0.4097
   2.300   0.9823   0.00695   0.00257  -0.1598  0.6062  0.8532  -1.2432   0.0000   0.0000   0.0000   0.4076
   2.400   0.9926   0.00698   0.00260  -0.1596  0.6030  0.8628  -1.2560   0.0000   0.0000   0.0000   0.4056
   2.500   1.0028   0.00699   0.00263  -0.1594  0.5996  0.8729  -1.2689   0.0000   0.0000   0.0000   0.4036
   2.600   1.0129   0.00700   0.00265  -0.1591  0.5959  0.8842  -1.2817   0.0000   0.0000   0.0000   0.4017
   2.800   1.0316   0.00702   0.00270  -0.1583  0.5891  0.9106  -1.3062   0.0000   0.0000   0.0000   0.3977
   2.900   1.0403   0.00701   0.00272  -0.1577  0.5855  0.9288  -1.3180   0.0000   0.0000   0.0000   0.3958
   3.000   1.0487   0.00698   0.00272  -0.1570  0.5822  0.9619  -1.3297   0.0000   0.0000   0.0000   0.3938
   3.100   1.0606   0.00700   0.00273  -0.1572  0.5790  1.0000  -1.3439   0.0000   0.0000   0.0000   0.3922
   3.200   1.0720   0.00705   0.00277  -0.1573  0.5755  1.0000  -1.3577   0.0000   0.0000   0.0000   0.3905
   3.300   1.0831   0.00710   0.00280  -0.1574  0.5720  1.0000  -1.3713   0.0000   0.0000   0.0000   0.3889
   3.400   1.0940   0.00717   0.00284  -0.1574  0.5688  1.0000  -1.3848   0.0000   0.0000   0.0000   0.3873
   3.500   1.1054   0.00721   0.00288  -0.1574  0.5651  1.0000  -1.3986   0.0000   0.0000   0.0000   0.3858
   3.600   1.1163   0.00727   0.00292  -0.1574  0.5613  1.0000  -1.4122   0.0000   0.0000   0.0000   0.3843
   3.700   1.1271   0.00734   0.00297  -0.1574  0.5579  1.0000  -1.4257   0.0000   0.0000   0.0000   0.3828
   3.800   1.1383   0.00739   0.00301  -0.1575  0.5540  1.0000  -1.4398   0.0000   0.0000   0.0000   0.3813
   3.900   1.1491   0.00746   0.00306  -0.1575  0.5501  1.0000  -1.4538   0.0000   0.0000   0.0000   0.3799
   4.000   1.1598   0.00753   0.00311  -0.1574  0.5464  1.0000  -1.4688   0.0000   0.0000   0.0000   0.3784
   4.100   1.1708   0.00759   0.00316  -0.1574  0.5421  1.0000  -1.4843   0.0000   0.0000   0.0000   0.3770
   4.200   1.1813   0.00767   0.00321  -0.1574  0.5379  1.0000  -1.4998   0.0000   0.0000   0.0000   0.3756
   4.300   1.1920   0.00773   0.00327  -0.1573  0.5336  1.0000  -1.5157   0.0000   0.0000   0.0000   0.3743
   4.400   1.2027   0.00781   0.00332  -0.1573  0.5290  1.0000  -1.5315   0.0000   0.0000   0.0000   0.3729
   4.500   1.2130   0.00789   0.00338  -0.1572  0.5247  1.0000  -1.5471   0.0000   0.0000   0.0000   0.3716
   4.600   1.2238   0.00796   0.00344  -0.1572  0.5201  1.0000  -1.5633   0.0000   0.0000   0.0000   0.3703
   4.700   1.2340   0.00805   0.00351  -0.1571  0.5157  1.0000  -1.5799   0.0000   0.0000   0.0000   0.3690
   4.800   1.2445   0.00813   0.00357  -0.1570  0.5114  1.0000  -1.5969   0.0000   0.0000   0.0000   0.3677
   4.900   1.2550   0.00821   0.00363  -0.1569  0.5070  1.0000  -1.6137   0.0000   0.0000   0.0000   0.3665
   5.000   1.2651   0.00831   0.00371  -0.1568  0.5029  1.0000  -1.6303   0.0000   0.0000   0.0000   0.3652
   5.100   1.2757   0.00838   0.00377  -0.1567  0.4983  1.0000  -1.6474   0.0000   0.0000   0.0000   0.3640
   5.200   1.2857   0.00848   0.00385  -0.1566  0.4937  1.0000  -1.6642   0.0000   0.0000   0.0000   0.3628
   5.300   1.2960   0.00856   0.00392  -0.1565  0.4891  1.0000  -1.6842   0.0000   0.0000   0.0000   0.3616
   5.400   1.3060   0.00866   0.00400  -0.1564  0.4842  1.0000  -1.7040   0.0000   0.0000   0.0000   0.3605
   5.500   1.3160   0.00876   0.00408  -0.1562  0.4794  1.0000  -1.7237   0.0000   0.0000   0.0000   0.3593
   5.600   1.3260   0.00885   0.00416  -0.1561  0.4740  1.0000  -1.7436   0.0000   0.0000   0.0000   0.3581
   5.700   1.3357   0.00897   0.00425  -0.1559  0.4689  1.0000  -1.7632   0.0000   0.0000   0.0000   0.3570
   5.800   1.3457   0.00906   0.00433  -0.1557  0.4634  1.0000  -1.7831   0.0000   0.0000   0.0000   0.3559
   5.900   1.3552   0.00918   0.00442  -0.1555  0.4583  1.0000  -1.8026   0.0000   0.0000   0.0000   0.3547
   6.000   1.3650   0.00928   0.00451  -0.1553  0.4528  1.0000  -1.8225   0.0000   0.0000   0.0000   0.3536
   6.100   1.3744   0.00941   0.00461  -0.1551  0.4478  1.0000  -1.8467   0.0000   0.0000   0.0000   0.3525
   6.200   1.3842   0.00951   0.00470  -0.1549  0.4426  1.0000  -1.8716   0.0000   0.0000   0.0000   0.3514
   6.300   1.3933   0.00965   0.00481  -0.1546  0.4377  1.0000  -1.8957   0.0000   0.0000   0.0000   0.3503
   6.400   1.4031   0.00975   0.00490  -0.1544  0.4323  1.0000  -1.9207   0.0000   0.0000   0.0000   0.3493
   6.500   1.4119   0.00990   0.00502  -0.1541  0.4269  1.0000  -1.9446   0.0000   0.0000   0.0000   0.3482
   6.600   1.4214   0.01001   0.00512  -0.1539  0.4210  1.0000  -1.9696   0.0000   0.0000   0.0000   0.3472
   6.700   1.4301   0.01016   0.00524  -0.1535  0.4154  1.0000  -1.9935   0.0000   0.0000   0.0000   0.3461
   6.800   1.4394   0.01028   0.00534  -0.1532  0.4094  1.0000  -2.0182   0.0000   0.0000   0.0000   0.3451
   6.900   1.4480   0.01043   0.00547  -0.1529  0.4038  1.0000  -2.0423   0.0000   0.0000   0.0000   0.3440
   7.000   1.4569   0.01057   0.00559  -0.1525  0.3977  1.0000  -2.0667   0.0000   0.0000   0.0000   0.3430
   7.100   1.4654   0.01072   0.00571  -0.1522  0.3919  1.0000  -2.0907   0.0000   0.0000   0.0000   0.3420
   7.200   1.4737   0.01088   0.00585  -0.1517  0.3856  1.0000  -2.1145   0.0000   0.0000   0.0000   0.3410
   7.300   1.4821   0.01103   0.00598  -0.1513  0.3796  1.0000  -2.1402   0.0000   0.0000   0.0000   0.3400
   7.500   1.4982   0.01136   0.00625  -0.1504  0.3678  1.0000  -2.2014   0.0000   0.0000   0.0000   0.3379
   7.600   1.5057   0.01154   0.00641  -0.1499  0.3622  1.0000  -2.2311   0.0000   0.0000   0.0000   0.3369
   7.700   1.5136   0.01169   0.00654  -0.1494  0.3563  1.0000  -2.2617   0.0000   0.0000   0.0000   0.3359
   7.800   1.5204   0.01187   0.00670  -0.1487  0.3508  1.0000  -2.2908   0.0000   0.0000   0.0000   0.3348
   7.900   1.5277   0.01204   0.00685  -0.1481  0.3447  1.0000  -2.3205   0.0000   0.0000   0.0000   0.3338
   8.000   1.5346   0.01222   0.00701  -0.1474  0.3389  1.0000  -2.3500   0.0000   0.0000   0.0000   0.3328
   8.100   1.5412   0.01243   0.00719  -0.1467  0.3327  1.0000  -2.3789   0.0000   0.0000   0.0000   0.3318
   8.200   1.5481   0.01262   0.00736  -0.1461  0.3268  1.0000  -2.4084   0.0000   0.0000   0.0000   0.3308
   8.300   1.5540   0.01285   0.00756  -0.1453  0.3209  1.0000  -2.4363   0.0000   0.0000   0.0000   0.3297
   8.400   1.5606   0.01305   0.00774  -0.1446  0.3146  1.0000  -2.4656   0.0000   0.0000   0.0000   0.3287
   8.500   1.5666   0.01328   0.00795  -0.1438  0.3088  1.0000  -2.4939   0.0000   0.0000   0.0000   0.3277
   8.600   1.5724   0.01353   0.00816  -0.1431  0.3027  1.0000  -2.5219   0.0000   0.0000   0.0000   0.3267
   8.700   1.5785   0.01376   0.00838  -0.1423  0.2967  1.0000  -2.5505   0.0000   0.0000   0.0000   0.3257
   8.800   1.5838   0.01403   0.00862  -0.1415  0.2909  1.0000  -2.5778   0.0000   0.0000   0.0000   0.3247
   8.900   1.5901   0.01425   0.00883  -0.1408  0.2850  1.0000  -2.6071   0.0000   0.0000   0.0000   0.3238
   9.000   1.5957   0.01452   0.00907  -0.1401  0.2797  1.0000  -2.6400   0.0000   0.0000   0.0000   0.3228
   9.100   1.6017   0.01477   0.00931  -0.1394  0.2743  1.0000  -2.6816   0.0000   0.0000   0.0000   0.3219
   9.200   1.6072   0.01504   0.00956  -0.1386  0.2694  1.0000  -2.7243   0.0000   0.0000   0.0000   0.3210
   9.300   1.6128   0.01532   0.00982  -0.1379  0.2644  1.0000  -2.7786   0.0000   0.0000   0.0000   0.3200
   9.400   1.6183   0.01561   0.01010  -0.1372  0.2600  1.0000  -2.8341   0.0000   0.0000   0.0000   0.3191
   9.500   1.6240   0.01589   0.01037  -0.1365  0.2553  1.0000  -2.8907   0.0000   0.0000   0.0000   0.3182
   9.600   1.6292   0.01620   0.01066  -0.1357  0.2511  1.0000  -2.9460   0.0000   0.0000   0.0000   0.3173
   9.700   1.6349   0.01649   0.01095  -0.1350  0.2464  1.0000  -3.0032   0.0000   0.0000   0.0000   0.3164
   9.800   1.6397   0.01683   0.01127  -0.1343  0.2419  1.0000  -3.0579   0.0000   0.0000   0.0000   0.3155
   9.900   1.6451   0.01715   0.01158  -0.1336  0.2370  1.0000  -3.1148   0.0000   0.0000   0.0000   0.3147
  10.000   1.6497   0.01752   0.01193  -0.1328  0.2322  1.0000  -3.1695   0.0000   0.0000   0.0000   0.3138
  10.100   1.6546   0.01787   0.01227  -0.1321  0.2268  1.0000  -3.2254   0.0000   0.0000   0.0000   0.3130
  10.200   1.6592   0.01826   0.01263  -0.1314  0.2215  1.0000  -3.2806   0.0000   0.0000   0.0000   0.3121
  10.300   1.6631   0.01868   0.01303  -0.1306  0.2161  1.0000  -3.3338   0.0000   0.0000   0.0000   0.3113
  10.400   1.6677   0.01907   0.01341  -0.1299  0.2108  1.0000  -3.3897   0.0000   0.0000   0.0000   0.3104
  10.500   1.6714   0.01952   0.01384  -0.1290  0.2056  1.0000  -3.4425   0.0000   0.0000   0.0000   0.3096
  10.600   1.6754   0.01996   0.01425  -0.1283  0.2001  1.0000  -3.4970   0.0000   0.0000   0.0000   0.3088
  10.700   1.6793   0.02041   0.01469  -0.1275  0.1950  1.0000  -3.5511   0.0000   0.0000   0.0000   0.3079
  10.800   1.6825   0.02091   0.01517  -0.1267  0.1899  1.0000  -3.6033   0.0000   0.0000   0.0000   0.3071
  10.900   1.6867   0.02136   0.01560  -0.1260  0.1848  1.0000  -3.6590   0.0000   0.0000   0.0000   0.3063
  11.000   1.6898   0.02187   0.01609  -0.1252  0.1801  1.0000  -3.7113   0.0000   0.0000   0.0000   0.3055
  11.100   1.6938   0.02233   0.01654  -0.1245  0.1752  1.0000  -3.7670   0.0000   0.0000   0.0000   0.3047
  11.200   1.6972   0.02284   0.01703  -0.1238  0.1706  1.0000  -3.8208   0.0000   0.0000   0.0000   0.3040
  11.300   1.7005   0.02336   0.01754  -0.1231  0.1656  1.0000  -3.8741   0.0000   0.0000   0.0000   0.3032
  11.400   1.7040   0.02387   0.01804  -0.1223  0.1610  1.0000  -3.9287   0.0000   0.0000   0.0000   0.3024
  11.500   1.7065   0.02445   0.01860  -0.1216  0.1565  1.0000  -3.9800   0.0000   0.0000   0.0000   0.3017
  11.600   1.7100   0.02497   0.01911  -0.1209  0.1521  1.0000  -4.0352   0.0000   0.0000   0.0000   0.3009
  11.700   1.7125   0.02557   0.01969  -0.1201  0.1480  1.0000  -4.0864   0.0000   0.0000   0.0000   0.3002
  11.800   1.7155   0.02612   0.02023  -0.1194  0.1438  1.0000  -4.1402   0.0000   0.0000   0.0000   0.2994
  11.900   1.7180   0.02673   0.02083  -0.1186  0.1401  1.0000  -4.1918   0.0000   0.0000   0.0000   0.2987
  12.000   1.7209   0.02730   0.02139  -0.1179  0.1359  1.0000  -4.2459   0.0000   0.0000   0.0000   0.2980
  12.100   1.7233   0.02792   0.02200  -0.1172  0.1321  1.0000  -4.2977   0.0000   0.0000   0.0000   0.2972
  12.200   1.7258   0.02854   0.02261  -0.1165  0.1281  1.0000  -4.3501   0.0000   0.0000   0.0000   0.2965
  12.300   1.7281   0.02918   0.02324  -0.1158  0.1244  1.0000  -4.4020   0.0000   0.0000   0.0000   0.2958
  12.400   1.7301   0.02984   0.02389  -0.1150  0.1205  1.0000  -4.4531   0.0000   0.0000   0.0000   0.2951
  12.500   1.7323   0.03048   0.02453  -0.1143  0.1169  1.0000  -4.5050   0.0000   0.0000   0.0000   0.2944
  12.600   1.7340   0.03118   0.02521  -0.1136  0.1133  1.0000  -4.5548   0.0000   0.0000   0.0000   0.2937
  12.700   1.7360   0.03184   0.02587  -0.1129  0.1100  1.0000  -4.6064   0.0000   0.0000   0.0000   0.2930
  12.800   1.7375   0.03256   0.02658  -0.1121  0.1066  1.0000  -4.6558   0.0000   0.0000   0.0000   0.2923
  12.900   1.7395   0.03325   0.02727  -0.1115  0.1036  1.0000  -4.7077   0.0000   0.0000   0.0000   0.2917
  13.000   1.7411   0.03398   0.02799  -0.1108  0.1004  1.0000  -4.7579   0.0000   0.0000   0.0000   0.2910
  13.100   1.7429   0.03470   0.02871  -0.1101  0.0976  1.0000  -4.8093   0.0000   0.0000   0.0000   0.2903
  13.200   1.7447   0.03542   0.02944  -0.1095  0.0946  1.0000  -4.8607   0.0000   0.0000   0.0000   0.2897
  13.300   1.7462   0.03618   0.03019  -0.1088  0.0920  1.0000  -4.9110   0.0000   0.0000   0.0000   0.2891
  13.400   1.7481   0.03691   0.03092  -0.1082  0.0892  1.0000  -4.9636   0.0000   0.0000   0.0000   0.2884
  13.600   1.7513   0.03843   0.03245  -0.1070  0.0842  1.0000  -5.0657   0.0000   0.0000   0.0000   0.2872
  13.700   1.7526   0.03923   0.03325  -0.1064  0.0817  1.0000  -5.1159   0.0000   0.0000   0.0000   0.2866
  13.800   1.7541   0.04003   0.03405  -0.1058  0.0796  1.0000  -5.1666   0.0000   0.0000   0.0000   0.2860
  13.900   1.7557   0.04082   0.03485  -0.1053  0.0773  1.0000  -5.2183   0.0000   0.0000   0.0000   0.2854
  14.000   1.7565   0.04168   0.03571  -0.1047  0.0752  1.0000  -5.2667   0.0000   0.0000   0.0000   0.2848
  14.100   1.7583   0.04247   0.03651  -0.1042  0.0733  1.0000  -5.3196   0.0000   0.0000   0.0000   0.2842
  14.200   1.7598   0.04330   0.03735  -0.1037  0.0712  1.0000  -5.3709   0.0000   0.0000   0.0000   0.2837
  14.400   1.7621   0.04503   0.03910  -0.1026  0.0675  1.0000  -5.4715   0.0000   0.0000   0.0000   0.2825
  14.500   1.7633   0.04591   0.03998  -0.1021  0.0656  1.0000  -5.5218   0.0000   0.0000   0.0000   0.2820
  14.700   1.7652   0.04770   0.04180  -0.1011  0.0622  1.0000  -5.6213   0.0000   0.0000   0.0000   0.2809
  14.800   1.7661   0.04862   0.04273  -0.1007  0.0604  1.0000  -5.6706   0.0000   0.0000   0.0000   0.2804
  14.900   1.7660   0.04964   0.04375  -0.1002  0.0587  1.0000  -5.7158   0.0000   0.0000   0.0000   0.2799
  15.000   1.7674   0.05052   0.04464  -0.0998  0.0571  1.0000  -5.7681   0.0000   0.0000   0.0000   0.2794
  15.100   1.7679   0.05151   0.04565  -0.0993  0.0554  1.0000  -5.8157   0.0000   0.0000   0.0000   0.2789
  15.300   1.7689   0.05350   0.04765  -0.0985  0.0522  1.0000  -5.9121   0.0000   0.0000   0.0000   0.2779
  15.400   1.7693   0.05452   0.04869  -0.0981  0.0505  1.0000  -5.9597   0.0000   0.0000   0.0000   0.2774
  15.500   1.7688   0.05563   0.04981  -0.0977  0.0490  1.0000  -6.0034   0.0000   0.0000   0.0000   0.2770
  15.600   1.7696   0.05663   0.05083  -0.0973  0.0475  1.0000  -6.0529   0.0000   0.0000   0.0000   0.2765
  15.700   1.7696   0.05771   0.05192  -0.0969  0.0460  1.0000  -6.0990   0.0000   0.0000   0.0000   0.2761
  15.900   1.7691   0.05995   0.05419  -0.0962  0.0433  1.0000  -6.1883   0.0000   0.0000   0.0000   0.2752
  16.000   1.7689   0.06107   0.05532  -0.0959  0.0420  1.0000  -6.2333   0.0000   0.0000   0.0000   0.2748
  16.100   1.7678   0.06229   0.05656  -0.0956  0.0408  1.0000  -6.2739   0.0000   0.0000   0.0000   0.2744
  16.200   1.7672   0.06346   0.05774  -0.0953  0.0397  1.0000  -6.3173   0.0000   0.0000   0.0000   0.2740
  16.300   1.7671   0.06460   0.05890  -0.0950  0.0386  1.0000  -6.3627   0.0000   0.0000   0.0000   0.2736
  16.400   1.7664   0.06581   0.06013  -0.0947  0.0374  1.0000  -6.4052   0.0000   0.0000   0.0000   0.2732
  16.500   1.7648   0.06714   0.06147  -0.0944  0.0364  1.0000  -6.4431   0.0000   0.0000   0.0000   0.2729
  16.600   1.7644   0.06834   0.06270  -0.0942  0.0355  1.0000  -6.4869   0.0000   0.0000   0.0000   0.2725
  16.700   1.7642   0.06952   0.06390  -0.0940  0.0344  1.0000  -6.5320   0.0000   0.0000   0.0000   0.2721
  16.800   1.7632   0.07080   0.06520  -0.0938  0.0334  1.0000  -6.5729   0.0000   0.0000   0.0000   0.2718
  16.900   1.7616   0.07216   0.06658  -0.0936  0.0325  1.0000  -6.6106   0.0000   0.0000   0.0000   0.2715
  17.000   1.7605   0.07347   0.06791  -0.0934  0.0317  1.0000  -6.6510   0.0000   0.0000   0.0000   0.2712
  17.100   1.7601   0.07470   0.06917  -0.0932  0.0308  1.0000  -6.6948   0.0000   0.0000   0.0000   0.2708
  17.200   1.7589   0.07605   0.07054  -0.0931  0.0299  1.0000  -6.7342   0.0000   0.0000   0.0000   0.2705
  17.300   1.7571   0.07746   0.07197  -0.0930  0.0291  1.0000  -6.7705   0.0000   0.0000   0.0000   0.2703
  17.400   1.7549   0.07892   0.07345  -0.0928  0.0283  1.0000  -6.8049   0.0000   0.0000   0.0000   0.2700
  17.500   1.7542   0.08020   0.07476  -0.0927  0.0276  1.0000  -6.8470   0.0000   0.0000   0.0000   0.2697
  17.600   1.7530   0.08155   0.07614  -0.0926  0.0268  1.0000  -6.8860   0.0000   0.0000   0.0000   0.2694
  17.700   1.7511   0.08300   0.07762  -0.0926  0.0260  1.0000  -6.9213   0.0000   0.0000   0.0000   0.2692
  17.800   1.7487   0.08452   0.07916  -0.0925  0.0253  1.0000  -6.9543   0.0000   0.0000   0.0000   0.2690
  17.900   1.7466   0.08603   0.08069  -0.0925  0.0247  1.0000  -6.9881   0.0000   0.0000   0.0000   0.2688
  18.000   1.7452   0.08743   0.08212  -0.0925  0.0241  1.0000  -7.0260   0.0000   0.0000   0.0000   0.2686
  18.100   1.7432   0.08894   0.08366  -0.0925  0.0234  1.0000  -7.0602   0.0000   0.0000   0.0000   0.2684
  18.200   1.7411   0.09046   0.08520  -0.0925  0.0228  1.0000  -7.1002   0.0000   0.0000   0.0000   0.2682
  18.300   1.7382   0.09209   0.08686  -0.0925  0.0223  1.0000  -7.1369   0.0000   0.0000   0.0000   0.2680
  18.500   1.7332   0.09528   0.09011  -0.0927  0.0213  1.0000  -7.2137   0.0000   0.0000   0.0000   0.2678
  18.600   1.7313   0.09680   0.09166  -0.0928  0.0209  1.0000  -7.2561   0.0000   0.0000   0.0000   0.2676
  18.700   1.7289   0.09840   0.09329  -0.0929  0.0204  1.0000  -7.2948   0.0000   0.0000   0.0000   0.2675
  18.800   1.7263   0.10003   0.09495  -0.0931  0.0200  1.0000  -7.3321   0.0000   0.0000   0.0000   0.2674
  18.900   1.7232   0.10171   0.09666  -0.0932  0.0196  1.0000  -7.3660   0.0000   0.0000   0.0000   0.2673
  19.000   1.7198   0.10345   0.09843  -0.0934  0.0192  1.0000  -7.3977   0.0000   0.0000   0.0000   0.2673
  19.100   1.7159   0.10526   0.10027  -0.0936  0.0189  1.0000  -7.4262   0.0000   0.0000   0.0000   0.2673
  19.200   1.7131   0.10694   0.10199  -0.0939  0.0185  1.0000  -7.4610   0.0000   0.0000   0.0000   0.2672
  19.300   1.7110   0.10852   0.10361  -0.0941  0.0182  1.0000  -7.5006   0.0000   0.0000   0.0000   0.2672
  19.400   1.7086   0.11016   0.10528  -0.0944  0.0179  1.0000  -7.5376   0.0000   0.0000   0.0000   0.2671
  19.500   1.7059   0.11184   0.10699  -0.0946  0.0176  1.0000  -7.5733   0.0000   0.0000   0.0000   0.2671
  19.600   1.7029   0.11358   0.10877  -0.0950  0.0172  1.0000  -7.6060   0.0000   0.0000   0.0000   0.2671
  19.700   1.6999   0.11534   0.11055  -0.0953  0.0169  1.0000  -7.6381   0.0000   0.0000   0.0000   0.2672
  19.800   1.6963   0.11717   0.11242  -0.0957  0.0167  1.0000  -7.6664   0.0000   0.0000   0.0000   0.2673
  19.900   1.6926   0.11904   0.11432  -0.0961  0.0164  1.0000  -7.6933   0.0000   0.0000   0.0000   0.2674
  20.000   1.6885   0.12099   0.11631  -0.0966  0.0161  1.0000  -7.7165   0.0000   0.0000   0.0000   0.2675


