xflr5 v6.57

 Calculated polar for: rev_root_140

 1 1 Reynolds number fixed          Mach number fixed         

 xtrf =   1.000 (top)        1.000 (bottom)
 Mach =   0.000     Re =     0.480 e 6     Ncrit =   9.000

  alpha     CL        CD       CDp       Cm    Top Xtr Bot Xtr   Cpmin    Chinge    XCp    
 ------- -------- --------- --------- -------- ------- ------- -------- --------- ---------
 -10.000  -0.3700   0.03157   0.02746  -0.1439  0.8498  0.0236  -5.7559   0.0000   0.0000   0.0000  -0.1630
  -9.900  -0.3643   0.03039   0.02620  -0.1448  0.8476  0.0238  -5.7126   0.0000   0.0000   0.0000  -0.1715
  -9.800  -0.3564   0.02976   0.02553  -0.1452  0.8457  0.0240  -5.6344   0.0000   0.0000   0.0000  -0.1818
  -9.700  -0.3475   0.02934   0.02508  -0.1455  0.8442  0.0242  -5.5445   0.0000   0.0000   0.0000  -0.1934
  -9.600  -0.3377   0.02917   0.02493  -0.1457  0.8423  0.0244  -5.4394   0.0000   0.0000   0.0000  -0.2062
  -9.500  -0.3280   0.02899   0.02476  -0.1458  0.8403  0.0246  -5.3375   0.0000   0.0000   0.0000  -0.2199
  -9.400  -0.3189   0.02855   0.02428  -0.1462  0.8384  0.0248  -5.2537   0.0000   0.0000   0.0000  -0.2339
  -9.300  -0.3105   0.02786   0.02351  -0.1467  0.8367  0.0251  -5.1873   0.0000   0.0000   0.0000  -0.2484
  -9.200  -0.3024   0.02700   0.02251  -0.1474  0.8352  0.0253  -5.1339   0.0000   0.0000   0.0000  -0.2635
  -9.100  -0.2944   0.02603   0.02141  -0.1480  0.8333  0.0255  -5.0881   0.0000   0.0000   0.0000  -0.2793
  -9.000  -0.2862   0.02503   0.02026  -0.1486  0.8313  0.0257  -5.0447   0.0000   0.0000   0.0000  -0.2961
  -8.900  -0.2777   0.02410   0.01918  -0.1491  0.8295  0.0259  -4.9981   0.0000   0.0000   0.0000  -0.3144
  -8.800  -0.2686   0.02326   0.01819  -0.1495  0.8279  0.0261  -4.9458   0.0000   0.0000   0.0000  -0.3346
  -8.700  -0.2592   0.02251   0.01729  -0.1499  0.8266  0.0264  -4.8888   0.0000   0.0000   0.0000  -0.3569
  -8.600  -0.2495   0.02183   0.01647  -0.1502  0.8250  0.0266  -4.8281   0.0000   0.0000   0.0000  -0.3812
  -8.500  -0.2397   0.02124   0.01575  -0.1505  0.8232  0.0268  -4.7637   0.0000   0.0000   0.0000  -0.4078
  -8.400  -0.2295   0.02072   0.01511  -0.1507  0.8215  0.0270  -4.6951   0.0000   0.0000   0.0000  -0.4374
  -8.300  -0.2191   0.02029   0.01455  -0.1509  0.8200  0.0272  -4.6222   0.0000   0.0000   0.0000  -0.4707
  -8.200  -0.2086   0.01984   0.01398  -0.1511  0.8186  0.0273  -4.5522   0.0000   0.0000   0.0000  -0.5073
  -8.100  -0.1990   0.01904   0.01312  -0.1513  0.8173  0.0276  -4.4950   0.0000   0.0000   0.0000  -0.5445
  -8.000  -0.1887   0.01859   0.01265  -0.1514  0.8159  0.0279  -4.4209   0.0000   0.0000   0.0000  -0.5880
  -7.900  -0.1783   0.01826   0.01232  -0.1516  0.8142  0.0281  -4.3418   0.0000   0.0000   0.0000  -0.6372
  -7.800  -0.1676   0.01800   0.01205  -0.1517  0.8126  0.0284  -4.2600   0.0000   0.0000   0.0000  -0.6938
  -7.700  -0.1567   0.01777   0.01178  -0.1518  0.8111  0.0288  -4.1783   0.0000   0.0000   0.0000  -0.7592
  -7.600  -0.1458   0.01754   0.01151  -0.1519  0.8098  0.0291  -4.0980   0.0000   0.0000   0.0000  -0.8352
  -7.500  -0.1347   0.01730   0.01123  -0.1521  0.8086  0.0295  -4.0189   0.0000   0.0000   0.0000  -0.9242
  -7.400  -0.1236   0.01706   0.01093  -0.1522  0.8075  0.0299  -3.9424   0.0000   0.0000   0.0000  -1.0300
  -7.300  -0.1128   0.01679   0.01062  -0.1523  0.8059  0.0303  -3.8692   0.0000   0.0000   0.0000  -1.1530
  -7.200  -0.1019   0.01653   0.01030  -0.1524  0.8043  0.0306  -3.7974   0.0000   0.0000   0.0000  -1.3031
  -7.100  -0.0909   0.01627   0.00998  -0.1524  0.8027  0.0309  -3.7316   0.0000   0.0000   0.0000  -1.4913
  -7.000  -0.0797   0.01604   0.00968  -0.1525  0.8013  0.0312  -3.6684   0.0000   0.0000   0.0000  -1.7344
  -6.900  -0.0684   0.01584   0.00941  -0.1526  0.7999  0.0314  -3.6036   0.0000   0.0000   0.0000  -2.0613
  -6.800  -0.0577   0.01539   0.00893  -0.1527  0.7987  0.0318  -3.5457   0.0000   0.0000   0.0000  -2.4904
  -6.700  -0.0469   0.01506   0.00860  -0.1528  0.7974  0.0322  -3.4804   0.0000   0.0000   0.0000  -3.1210
  -6.600  -0.0362   0.01482   0.00837  -0.1529  0.7956  0.0325  -3.4120   0.0000   0.0000   0.0000  -4.1246
  -6.500  -0.0252   0.01462   0.00816  -0.1529  0.7940  0.0329  -3.3428   0.0000   0.0000   0.0000  -6.0356
  -6.400  -0.0140   0.01443   0.00796  -0.1530  0.7925  0.0333  -3.2740   0.0000   0.0000   0.0000  -11.0371
  -6.300  -0.0027   0.01426   0.00776  -0.1531  0.7912  0.0338  -3.2055   0.0000   0.0000   0.0000  -57.4267
  -6.200   0.0086   0.01410   0.00757  -0.1532  0.7899  0.0344  -3.1372   0.0000   0.0000   0.0000  18.5653
  -6.100   0.0201   0.01395   0.00737  -0.1533  0.7888  0.0350  -3.0697   0.0000   0.0000   0.0000   8.1148
  -6.000   0.0314   0.01381   0.00720  -0.1534  0.7875  0.0355  -3.0036   0.0000   0.0000   0.0000   5.2815
  -5.900   0.0427   0.01369   0.00704  -0.1534  0.7858  0.0359  -2.9382   0.0000   0.0000   0.0000   3.9564
  -5.800   0.0535   0.01335   0.00672  -0.1536  0.7842  0.0366  -2.8776   0.0000   0.0000   0.0000   3.2075
  -5.700   0.0646   0.01314   0.00652  -0.1537  0.7827  0.0372  -2.8113   0.0000   0.0000   0.0000   2.6967
  -5.600   0.0760   0.01298   0.00635  -0.1538  0.7814  0.0378  -2.7443   0.0000   0.0000   0.0000   2.3312
  -5.500   0.0875   0.01283   0.00618  -0.1539  0.7801  0.0385  -2.6781   0.0000   0.0000   0.0000   2.0582
  -5.400   0.0991   0.01270   0.00602  -0.1540  0.7791  0.0393  -2.6130   0.0000   0.0000   0.0000   1.8469
  -5.300   0.1105   0.01257   0.00586  -0.1541  0.7777  0.0401  -2.5521   0.0000   0.0000   0.0000   1.6821
  -5.100   0.1330   0.01220   0.00550  -0.1543  0.7746  0.0419  -2.4421   0.0000   0.0000   0.0000   1.4404
  -5.000   0.1444   0.01206   0.00536  -0.1544  0.7732  0.0431  -2.3837   0.0000   0.0000   0.0000   1.3463
  -4.900   0.1559   0.01195   0.00523  -0.1545  0.7719  0.0444  -2.3264   0.0000   0.0000   0.0000   1.2652
  -4.800   0.1676   0.01185   0.00509  -0.1546  0.7706  0.0460  -2.2706   0.0000   0.0000   0.0000   1.1946
  -4.700   0.1792   0.01168   0.00494  -0.1548  0.7695  0.0479  -2.2126   0.0000   0.0000   0.0000   1.1338
  -4.600   0.1908   0.01159   0.00484  -0.1549  0.7683  0.0501  -2.1555   0.0000   0.0000   0.0000   1.0802
  -4.500   0.2021   0.01145   0.00472  -0.1550  0.7666  0.0526  -2.1008   0.0000   0.0000   0.0000   1.0340
  -4.400   0.2135   0.01136   0.00463  -0.1551  0.7650  0.0555  -2.0445   0.0000   0.0000   0.0000   0.9921
  -4.300   0.2250   0.01123   0.00451  -0.1552  0.7635  0.0587  -1.9891   0.0000   0.0000   0.0000   0.9542
  -4.200   0.2366   0.01115   0.00441  -0.1553  0.7621  0.0625  -1.9329   0.0000   0.0000   0.0000   0.9197
  -4.100   0.2483   0.01102   0.00429  -0.1555  0.7608  0.0665  -1.8815   0.0000   0.0000   0.0000   0.8885
  -4.000   0.2601   0.01091   0.00418  -0.1556  0.7596  0.0709  -1.8307   0.0000   0.0000   0.0000   0.8598
  -3.900   0.2717   0.01083   0.00409  -0.1557  0.7582  0.0757  -1.7797   0.0000   0.0000   0.0000   0.8339
  -3.800   0.2829   0.01072   0.00403  -0.1558  0.7564  0.0809  -1.7289   0.0000   0.0000   0.0000   0.8107
  -3.700   0.2943   0.01063   0.00396  -0.1559  0.7547  0.0867  -1.6779   0.0000   0.0000   0.0000   0.7890
  -3.600   0.3059   0.01054   0.00389  -0.1560  0.7532  0.0932  -1.6265   0.0000   0.0000   0.0000   0.7687
  -3.500   0.3175   0.01046   0.00382  -0.1561  0.7517  0.1005  -1.5750   0.0000   0.0000   0.0000   0.7498
  -3.400   0.3292   0.01038   0.00375  -0.1563  0.7505  0.1085  -1.5235   0.0000   0.0000   0.0000   0.7322
  -3.300   0.3410   0.01031   0.00369  -0.1565  0.7493  0.1173  -1.4719   0.0000   0.0000   0.0000   0.7157
  -3.200   0.3524   0.01024   0.00365  -0.1566  0.7478  0.1269  -1.4215   0.0000   0.0000   0.0000   0.7006
  -3.100   0.3638   0.01017   0.00362  -0.1566  0.7460  0.1368  -1.3717   0.0000   0.0000   0.0000   0.6866
  -3.000   0.3752   0.01009   0.00358  -0.1567  0.7444  0.1470  -1.3219   0.0000   0.0000   0.0000   0.6733
  -2.900   0.3868   0.01002   0.00354  -0.1569  0.7429  0.1578  -1.2721   0.0000   0.0000   0.0000   0.6607
  -2.800   0.3984   0.00996   0.00350  -0.1570  0.7415  0.1695  -1.2224   0.0000   0.0000   0.0000   0.6488
  -2.700   0.4102   0.00990   0.00346  -0.1571  0.7402  0.1820  -1.1729   0.0000   0.0000   0.0000   0.6375
  -2.600   0.4220   0.00985   0.00342  -0.1573  0.7391  0.1946  -1.1237   0.0000   0.0000   0.0000   0.6268
  -2.500   0.4334   0.00978   0.00341  -0.1574  0.7375  0.2072  -1.0761   0.0000   0.0000   0.0000   0.6169
  -2.400   0.4447   0.00972   0.00340  -0.1575  0.7357  0.2202  -1.0323   0.0000   0.0000   0.0000   0.6075
  -2.300   0.4562   0.00967   0.00338  -0.1576  0.7339  0.2333  -0.9892   0.0000   0.0000   0.0000   0.5985
  -2.200   0.4677   0.00962   0.00335  -0.1577  0.7323  0.2459  -0.9462   0.0000   0.0000   0.0000   0.5899
  -2.100   0.4794   0.00956   0.00331  -0.1578  0.7308  0.2582  -0.9034   0.0000   0.0000   0.0000   0.5817
  -2.000   0.4912   0.00951   0.00328  -0.1580  0.7294  0.2714  -0.8608   0.0000   0.0000   0.0000   0.5738
  -1.900   0.5028   0.00947   0.00327  -0.1581  0.7279  0.2854  -0.8279   0.0000   0.0000   0.0000   0.5664
  -1.800   0.5140   0.00942   0.00326  -0.1581  0.7258  0.2995  -0.8356   0.0000   0.0000   0.0000   0.5594
  -1.700   0.5254   0.00937   0.00325  -0.1582  0.7239  0.3138  -0.8435   0.0000   0.0000   0.0000   0.5526
  -1.600   0.5369   0.00932   0.00324  -0.1583  0.7222  0.3289  -0.8514   0.0000   0.0000   0.0000   0.5461
  -1.500   0.5486   0.00927   0.00322  -0.1584  0.7206  0.3458  -0.8595   0.0000   0.0000   0.0000   0.5398
  -1.400   0.5604   0.00923   0.00320  -0.1586  0.7193  0.3635  -0.8676   0.0000   0.0000   0.0000   0.5338
  -1.300   0.5720   0.00918   0.00319  -0.1587  0.7178  0.3808  -0.8756   0.0000   0.0000   0.0000   0.5281
  -1.200   0.5832   0.00913   0.00321  -0.1587  0.7159  0.3982  -0.8833   0.0000   0.0000   0.0000   0.5226
  -1.000   0.6061   0.00905   0.00321  -0.1589  0.7123  0.4325  -0.8991   0.0000   0.0000   0.0000   0.5122
  -0.900   0.6177   0.00901   0.00320  -0.1590  0.7106  0.4502  -0.9083   0.0000   0.0000   0.0000   0.5073
  -0.800   0.6294   0.00897   0.00319  -0.1591  0.7092  0.4693  -0.9175   0.0000   0.0000   0.0000   0.5025
  -0.700   0.6411   0.00893   0.00319  -0.1593  0.7078  0.4896  -0.9268   0.0000   0.0000   0.0000   0.4979
  -0.600   0.6522   0.00888   0.00322  -0.1593  0.7057  0.5095  -0.9356   0.0000   0.0000   0.0000   0.4936
  -0.500   0.6635   0.00884   0.00323  -0.1593  0.7037  0.5312  -0.9446   0.0000   0.0000   0.0000   0.4893
  -0.400   0.6748   0.00879   0.00324  -0.1594  0.7018  0.5545  -0.9537   0.0000   0.0000   0.0000   0.4852
  -0.300   0.6863   0.00874   0.00325  -0.1594  0.7001  0.5778  -0.9631   0.0000   0.0000   0.0000   0.4811
  -0.200   0.6978   0.00870   0.00326  -0.1595  0.6985  0.6018  -0.9726   0.0000   0.0000   0.0000   0.4772
  -0.100   0.7090   0.00867   0.00328  -0.1595  0.6967  0.6249  -0.9819   0.0000   0.0000   0.0000   0.4735
   0.000   0.7198   0.00863   0.00331  -0.1594  0.6943  0.6457  -0.9909   0.0000   0.0000   0.0000   0.4698
   0.100   0.7308   0.00860   0.00333  -0.1594  0.6920  0.6666  -1.0001   0.0000   0.0000   0.0000   0.4662
   0.200   0.7419   0.00858   0.00335  -0.1593  0.6900  0.6874  -1.0094   0.0000   0.0000   0.0000   0.4627
   0.300   0.7531   0.00856   0.00336  -0.1592  0.6882  0.7068  -1.0188   0.0000   0.0000   0.0000   0.4593
   0.400   0.7641   0.00855   0.00338  -0.1592  0.6864  0.7256  -1.0281   0.0000   0.0000   0.0000   0.4560
   0.500   0.7747   0.00854   0.00342  -0.1590  0.6840  0.7422  -1.0370   0.0000   0.0000   0.0000   0.4528
   0.600   0.7854   0.00853   0.00344  -0.1589  0.6818  0.7574  -1.0461   0.0000   0.0000   0.0000   0.4497
   0.700   0.7963   0.00852   0.00346  -0.1588  0.6798  0.7711  -1.0553   0.0000   0.0000   0.0000   0.4467
   0.800   0.8072   0.00852   0.00346  -0.1587  0.6781  0.7838  -1.0647   0.0000   0.0000   0.0000   0.4437
   0.900   0.8183   0.00853   0.00346  -0.1586  0.6765  0.7955  -1.0755   0.0000   0.0000   0.0000   0.4408
   1.000   0.8287   0.00852   0.00350  -0.1584  0.6741  0.8064  -1.0857   0.0000   0.0000   0.0000   0.4380
   1.100   0.8391   0.00851   0.00352  -0.1582  0.6717  0.8174  -1.0960   0.0000   0.0000   0.0000   0.4352
   1.200   0.8496   0.00851   0.00354  -0.1580  0.6696  0.8287  -1.1064   0.0000   0.0000   0.0000   0.4325
   1.300   0.8599   0.00850   0.00354  -0.1578  0.6676  0.8402  -1.1167   0.0000   0.0000   0.0000   0.4299
   1.400   0.8702   0.00850   0.00354  -0.1575  0.6657  0.8518  -1.1271   0.0000   0.0000   0.0000   0.4273
   1.500   0.8797   0.00848   0.00357  -0.1571  0.6629  0.8637  -1.1371   0.0000   0.0000   0.0000   0.4247
   1.600   0.8892   0.00846   0.00358  -0.1567  0.6601  0.8760  -1.1472   0.0000   0.0000   0.0000   0.4222
   1.700   0.8985   0.00844   0.00357  -0.1562  0.6577  0.8887  -1.1573   0.0000   0.0000   0.0000   0.4197
   1.800   0.9076   0.00842   0.00355  -0.1556  0.6556  0.9023  -1.1673   0.0000   0.0000   0.0000   0.4172
   1.900   0.9158   0.00838   0.00355  -0.1549  0.6526  0.9180  -1.1765   0.0000   0.0000   0.0000   0.4148
   2.000   0.9240   0.00834   0.00354  -0.1542  0.6498  0.9380  -1.1859   0.0000   0.0000   0.0000   0.4123
   2.100   0.9362   0.00828   0.00348  -0.1543  0.6472  0.9790  -1.1979   0.0000   0.0000   0.0000   0.4102
   2.200   0.9485   0.00830   0.00347  -0.1546  0.6450  1.0000  -1.2114   0.0000   0.0000   0.0000   0.4082
   2.300   0.9599   0.00833   0.00350  -0.1547  0.6421  1.0000  -1.2249   0.0000   0.0000   0.0000   0.4062
   2.400   0.9714   0.00837   0.00353  -0.1548  0.6392  1.0000  -1.2385   0.0000   0.0000   0.0000   0.4043
   2.500   0.9830   0.00840   0.00354  -0.1549  0.6367  1.0000  -1.2522   0.0000   0.0000   0.0000   0.4024
   2.600   0.9946   0.00845   0.00355  -0.1551  0.6345  1.0000  -1.2660   0.0000   0.0000   0.0000   0.4006
   2.700   1.0059   0.00848   0.00358  -0.1552  0.6315  1.0000  -1.2795   0.0000   0.0000   0.0000   0.3988
   2.800   1.0172   0.00852   0.00361  -0.1552  0.6284  1.0000  -1.2930   0.0000   0.0000   0.0000   0.3970
   2.900   1.0284   0.00856   0.00363  -0.1553  0.6255  1.0000  -1.3067   0.0000   0.0000   0.0000   0.3952
   3.000   1.0397   0.00861   0.00365  -0.1553  0.6229  1.0000  -1.3203   0.0000   0.0000   0.0000   0.3935
   3.100   1.0508   0.00864   0.00369  -0.1554  0.6192  1.0000  -1.3338   0.0000   0.0000   0.0000   0.3918
   3.200   1.0618   0.00868   0.00372  -0.1554  0.6158  1.0000  -1.3473   0.0000   0.0000   0.0000   0.3902
   3.300   1.0729   0.00874   0.00373  -0.1554  0.6129  1.0000  -1.3610   0.0000   0.0000   0.0000   0.3885
   3.400   1.0838   0.00877   0.00378  -0.1554  0.6090  1.0000  -1.3744   0.0000   0.0000   0.0000   0.3870
   3.500   1.0948   0.00882   0.00381  -0.1554  0.6054  1.0000  -1.3879   0.0000   0.0000   0.0000   0.3854
   3.600   1.1057   0.00888   0.00384  -0.1554  0.6023  1.0000  -1.4015   0.0000   0.0000   0.0000   0.3838
   3.700   1.1165   0.00892   0.00388  -0.1554  0.5986  1.0000  -1.4150   0.0000   0.0000   0.0000   0.3823
   3.800   1.1274   0.00897   0.00393  -0.1553  0.5950  1.0000  -1.4289   0.0000   0.0000   0.0000   0.3808
   3.900   1.1382   0.00904   0.00397  -0.1553  0.5919  1.0000  -1.4428   0.0000   0.0000   0.0000   0.3793
   4.000   1.1490   0.00909   0.00402  -0.1553  0.5884  1.0000  -1.4578   0.0000   0.0000   0.0000   0.3779
   4.100   1.1597   0.00915   0.00407  -0.1553  0.5847  1.0000  -1.4730   0.0000   0.0000   0.0000   0.3765
   4.200   1.1704   0.00922   0.00411  -0.1552  0.5814  1.0000  -1.4884   0.0000   0.0000   0.0000   0.3751
   4.300   1.1810   0.00928   0.00417  -0.1552  0.5778  1.0000  -1.5041   0.0000   0.0000   0.0000   0.3737
   4.400   1.1917   0.00934   0.00422  -0.1551  0.5739  1.0000  -1.5199   0.0000   0.0000   0.0000   0.3724
   4.500   1.2021   0.00941   0.00427  -0.1550  0.5704  1.0000  -1.5356   0.0000   0.0000   0.0000   0.3710
   4.600   1.2127   0.00948   0.00433  -0.1549  0.5666  1.0000  -1.5513   0.0000   0.0000   0.0000   0.3697
   4.700   1.2231   0.00955   0.00440  -0.1549  0.5626  1.0000  -1.5677   0.0000   0.0000   0.0000   0.3684
   4.800   1.2333   0.00964   0.00446  -0.1547  0.5588  1.0000  -1.5843   0.0000   0.0000   0.0000   0.3671
   4.900   1.2437   0.00970   0.00453  -0.1546  0.5544  1.0000  -1.6010   0.0000   0.0000   0.0000   0.3658
   5.000   1.2538   0.00978   0.00459  -0.1545  0.5500  1.0000  -1.6176   0.0000   0.0000   0.0000   0.3646
   5.100   1.2638   0.00987   0.00466  -0.1543  0.5458  1.0000  -1.6342   0.0000   0.0000   0.0000   0.3633
   5.200   1.2740   0.00995   0.00474  -0.1542  0.5411  1.0000  -1.6509   0.0000   0.0000   0.0000   0.3621
   5.300   1.2838   0.01005   0.00481  -0.1540  0.5369  1.0000  -1.6690   0.0000   0.0000   0.0000   0.3609
   5.400   1.2939   0.01013   0.00489  -0.1539  0.5323  1.0000  -1.6886   0.0000   0.0000   0.0000   0.3597
   5.500   1.3038   0.01022   0.00497  -0.1537  0.5279  1.0000  -1.7082   0.0000   0.0000   0.0000   0.3585
   5.600   1.3136   0.01032   0.00506  -0.1535  0.5238  1.0000  -1.7278   0.0000   0.0000   0.0000   0.3573
   5.700   1.3235   0.01041   0.00514  -0.1533  0.5191  1.0000  -1.7475   0.0000   0.0000   0.0000   0.3562
   5.800   1.3329   0.01053   0.00523  -0.1530  0.5149  1.0000  -1.7668   0.0000   0.0000   0.0000   0.3550
   5.900   1.3427   0.01062   0.00532  -0.1529  0.5100  1.0000  -1.7866   0.0000   0.0000   0.0000   0.3539
   6.000   1.3521   0.01073   0.00542  -0.1526  0.5054  1.0000  -1.8059   0.0000   0.0000   0.0000   0.3527
   6.100   1.3616   0.01084   0.00551  -0.1524  0.5007  1.0000  -1.8264   0.0000   0.0000   0.0000   0.3516
   6.200   1.3709   0.01095   0.00562  -0.1521  0.4956  1.0000  -1.8506   0.0000   0.0000   0.0000   0.3505
   6.300   1.3799   0.01108   0.00573  -0.1518  0.4907  1.0000  -1.8746   0.0000   0.0000   0.0000   0.3494
   6.400   1.3891   0.01119   0.00583  -0.1515  0.4854  1.0000  -1.8988   0.0000   0.0000   0.0000   0.3483
   6.500   1.3979   0.01133   0.00595  -0.1511  0.4805  1.0000  -1.9225   0.0000   0.0000   0.0000   0.3472
   6.600   1.4070   0.01144   0.00606  -0.1508  0.4750  1.0000  -1.9469   0.0000   0.0000   0.0000   0.3462
   6.700   1.4155   0.01159   0.00618  -0.1504  0.4701  1.0000  -1.9704   0.0000   0.0000   0.0000   0.3451
   6.800   1.4246   0.01171   0.00630  -0.1501  0.4646  1.0000  -1.9948   0.0000   0.0000   0.0000   0.3440
   7.000   1.4417   0.01198   0.00655  -0.1493  0.4545  1.0000  -2.0426   0.0000   0.0000   0.0000   0.3419
   7.100   1.4497   0.01215   0.00669  -0.1489  0.4494  1.0000  -2.0658   0.0000   0.0000   0.0000   0.3409
   7.200   1.4582   0.01228   0.00682  -0.1485  0.4439  1.0000  -2.0898   0.0000   0.0000   0.0000   0.3398
   7.300   1.4657   0.01246   0.00697  -0.1479  0.4386  1.0000  -2.1126   0.0000   0.0000   0.0000   0.3388
   7.400   1.4739   0.01260   0.00711  -0.1475  0.4328  1.0000  -2.1384   0.0000   0.0000   0.0000   0.3378
   7.500   1.4810   0.01279   0.00727  -0.1468  0.4274  1.0000  -2.1673   0.0000   0.0000   0.0000   0.3367
   7.600   1.4889   0.01294   0.00742  -0.1463  0.4215  1.0000  -2.1976   0.0000   0.0000   0.0000   0.3357
   7.800   1.5024   0.01329   0.00774  -0.1449  0.4105  1.0000  -2.2548   0.0000   0.0000   0.0000   0.3335
   7.900   1.5083   0.01350   0.00793  -0.1441  0.4053  1.0000  -2.2823   0.0000   0.0000   0.0000   0.3325
   8.000   1.5156   0.01366   0.00809  -0.1435  0.3996  1.0000  -2.3119   0.0000   0.0000   0.0000   0.3314
   8.100   1.5214   0.01389   0.00829  -0.1427  0.3945  1.0000  -2.3393   0.0000   0.0000   0.0000   0.3304
   8.200   1.5284   0.01406   0.00847  -0.1421  0.3888  1.0000  -2.3688   0.0000   0.0000   0.0000   0.3294
   8.300   1.5339   0.01431   0.00868  -0.1412  0.3838  1.0000  -2.3959   0.0000   0.0000   0.0000   0.3283
   8.400   1.5406   0.01450   0.00888  -0.1406  0.3784  1.0000  -2.4250   0.0000   0.0000   0.0000   0.3273
   8.600   1.5525   0.01496   0.00932  -0.1391  0.3684  1.0000  -2.4810   0.0000   0.0000   0.0000   0.3253
   8.700   1.5576   0.01523   0.00957  -0.1382  0.3635  1.0000  -2.5078   0.0000   0.0000   0.0000   0.3243
   8.800   1.5640   0.01546   0.00980  -0.1375  0.3582  1.0000  -2.5367   0.0000   0.0000   0.0000   0.3234
   8.900   1.5688   0.01575   0.01007  -0.1367  0.3530  1.0000  -2.5631   0.0000   0.0000   0.0000   0.3224
   9.000   1.5748   0.01600   0.01032  -0.1360  0.3474  1.0000  -2.5915   0.0000   0.0000   0.0000   0.3214
   9.200   1.5849   0.01659   0.01088  -0.1344  0.3362  1.0000  -2.6617   0.0000   0.0000   0.0000   0.3195
   9.300   1.5892   0.01694   0.01121  -0.1335  0.3307  1.0000  -2.6988   0.0000   0.0000   0.0000   0.3185
   9.400   1.5943   0.01725   0.01151  -0.1327  0.3248  1.0000  -2.7402   0.0000   0.0000   0.0000   0.3176
   9.500   1.5987   0.01760   0.01185  -0.1319  0.3196  1.0000  -2.7800   0.0000   0.0000   0.0000   0.3167
   9.600   1.6035   0.01795   0.01218  -0.1311  0.3141  1.0000  -2.8265   0.0000   0.0000   0.0000   0.3158
   9.700   1.6079   0.01831   0.01253  -0.1303  0.3090  1.0000  -2.8785   0.0000   0.0000   0.0000   0.3149
   9.800   1.6125   0.01868   0.01290  -0.1296  0.3036  1.0000  -2.9311   0.0000   0.0000   0.0000   0.3140
   9.900   1.6169   0.01906   0.01327  -0.1288  0.2986  1.0000  -2.9837   0.0000   0.0000   0.0000   0.3131
  10.000   1.6213   0.01946   0.01365  -0.1281  0.2934  1.0000  -3.0363   0.0000   0.0000   0.0000   0.3123
  10.100   1.6257   0.01985   0.01404  -0.1273  0.2883  1.0000  -3.0896   0.0000   0.0000   0.0000   0.3114
  10.200   1.6298   0.02027   0.01445  -0.1266  0.2831  1.0000  -3.1418   0.0000   0.0000   0.0000   0.3106
  10.300   1.6342   0.02068   0.01485  -0.1258  0.2780  1.0000  -3.1956   0.0000   0.0000   0.0000   0.3097
  10.400   1.6380   0.02114   0.01530  -0.1251  0.2729  1.0000  -3.2472   0.0000   0.0000   0.0000   0.3089
  10.500   1.6422   0.02157   0.01572  -0.1244  0.2681  1.0000  -3.3010   0.0000   0.0000   0.0000   0.3081
  10.600   1.6456   0.02206   0.01620  -0.1236  0.2633  1.0000  -3.3518   0.0000   0.0000   0.0000   0.3073
  10.700   1.6496   0.02251   0.01665  -0.1229  0.2584  1.0000  -3.4053   0.0000   0.0000   0.0000   0.3065
  10.800   1.6525   0.02305   0.01716  -0.1221  0.2534  1.0000  -3.4551   0.0000   0.0000   0.0000   0.3057
  10.900   1.6564   0.02352   0.01764  -0.1214  0.2482  1.0000  -3.5084   0.0000   0.0000   0.0000   0.3049
  11.100   1.6624   0.02461   0.01870  -0.1199  0.2376  1.0000  -3.6100   0.0000   0.0000   0.0000   0.3033
  11.200   1.6648   0.02520   0.01928  -0.1191  0.2324  1.0000  -3.6589   0.0000   0.0000   0.0000   0.3025
  11.300   1.6679   0.02575   0.01982  -0.1184  0.2267  1.0000  -3.7104   0.0000   0.0000   0.0000   0.3018
  11.400   1.6706   0.02633   0.02039  -0.1176  0.2213  1.0000  -3.7609   0.0000   0.0000   0.0000   0.3010
  11.500   1.6725   0.02698   0.02101  -0.1168  0.2161  1.0000  -3.8083   0.0000   0.0000   0.0000   0.3003
  11.600   1.6755   0.02755   0.02158  -0.1161  0.2106  1.0000  -3.8603   0.0000   0.0000   0.0000   0.2995
  11.700   1.6772   0.02822   0.02223  -0.1153  0.2058  1.0000  -3.9077   0.0000   0.0000   0.0000   0.2988
  11.800   1.6799   0.02883   0.02283  -0.1147  0.2006  1.0000  -3.9589   0.0000   0.0000   0.0000   0.2981
  11.900   1.6819   0.02949   0.02347  -0.1139  0.1960  1.0000  -4.0077   0.0000   0.0000   0.0000   0.2973
  12.000   1.6840   0.03015   0.02413  -0.1132  0.1911  1.0000  -4.0567   0.0000   0.0000   0.0000   0.2966
  12.100   1.6861   0.03081   0.02478  -0.1125  0.1866  1.0000  -4.1063   0.0000   0.0000   0.0000   0.2959
  12.200   1.6876   0.03152   0.02548  -0.1117  0.1821  1.0000  -4.1536   0.0000   0.0000   0.0000   0.2952
  12.300   1.6899   0.03217   0.02613  -0.1111  0.1775  1.0000  -4.2042   0.0000   0.0000   0.0000   0.2945
  12.400   1.6910   0.03292   0.02687  -0.1103  0.1731  1.0000  -4.2503   0.0000   0.0000   0.0000   0.2938
  12.500   1.6934   0.03358   0.02753  -0.1097  0.1685  1.0000  -4.3017   0.0000   0.0000   0.0000   0.2931
  12.600   1.6943   0.03436   0.02830  -0.1089  0.1643  1.0000  -4.3473   0.0000   0.0000   0.0000   0.2925
  12.700   1.6965   0.03505   0.02899  -0.1083  0.1598  1.0000  -4.3980   0.0000   0.0000   0.0000   0.2918
  12.800   1.6974   0.03586   0.02978  -0.1076  0.1559  1.0000  -4.4436   0.0000   0.0000   0.0000   0.2912
  12.900   1.6991   0.03659   0.03052  -0.1070  0.1517  1.0000  -4.4929   0.0000   0.0000   0.0000   0.2905
  13.000   1.6997   0.03743   0.03135  -0.1063  0.1480  1.0000  -4.5379   0.0000   0.0000   0.0000   0.2899
  13.100   1.7012   0.03820   0.03212  -0.1057  0.1440  1.0000  -4.5863   0.0000   0.0000   0.0000   0.2892
  13.200   1.7016   0.03908   0.03299  -0.1050  0.1406  1.0000  -4.6304   0.0000   0.0000   0.0000   0.2886
  13.300   1.7033   0.03985   0.03377  -0.1044  0.1366  1.0000  -4.6800   0.0000   0.0000   0.0000   0.2880
  13.400   1.7037   0.04074   0.03466  -0.1038  0.1332  1.0000  -4.7244   0.0000   0.0000   0.0000   0.2874
  13.500   1.7052   0.04155   0.03547  -0.1032  0.1295  1.0000  -4.7735   0.0000   0.0000   0.0000   0.2868
  13.600   1.7053   0.04249   0.03641  -0.1026  0.1262  1.0000  -4.8168   0.0000   0.0000   0.0000   0.2862
  13.700   1.7068   0.04331   0.03724  -0.1021  0.1227  1.0000  -4.8660   0.0000   0.0000   0.0000   0.2856
  13.900   1.7081   0.04514   0.03907  -0.1010  0.1161  1.0000  -4.9576   0.0000   0.0000   0.0000   0.2845
  14.000   1.7080   0.04614   0.04006  -0.1004  0.1130  1.0000  -5.0003   0.0000   0.0000   0.0000   0.2839
  14.100   1.7089   0.04705   0.04098  -0.0999  0.1099  1.0000  -5.0473   0.0000   0.0000   0.0000   0.2834
  14.200   1.7087   0.04806   0.04199  -0.0994  0.1069  1.0000  -5.0898   0.0000   0.0000   0.0000   0.2829
  14.300   1.7091   0.04903   0.04297  -0.0989  0.1040  1.0000  -5.1348   0.0000   0.0000   0.0000   0.2823
  14.400   1.7093   0.05003   0.04398  -0.0984  0.1011  1.0000  -5.1790   0.0000   0.0000   0.0000   0.2818
  14.500   1.7089   0.05110   0.04505  -0.0979  0.0985  1.0000  -5.2208   0.0000   0.0000   0.0000   0.2813
  14.600   1.7096   0.05207   0.04603  -0.0975  0.0956  1.0000  -5.2676   0.0000   0.0000   0.0000   0.2808
  14.700   1.7089   0.05319   0.04716  -0.0970  0.0932  1.0000  -5.3078   0.0000   0.0000   0.0000   0.2803
  14.800   1.7096   0.05418   0.04816  -0.0966  0.0906  1.0000  -5.3545   0.0000   0.0000   0.0000   0.2799
  14.900   1.7094   0.05527   0.04926  -0.0962  0.0881  1.0000  -5.3973   0.0000   0.0000   0.0000   0.2794
  15.000   1.7090   0.05640   0.05039  -0.0958  0.0859  1.0000  -5.4389   0.0000   0.0000   0.0000   0.2790
  15.100   1.7095   0.05743   0.05145  -0.0955  0.0835  1.0000  -5.4849   0.0000   0.0000   0.0000   0.2785
  15.200   1.7088   0.05860   0.05262  -0.0951  0.0814  1.0000  -5.5253   0.0000   0.0000   0.0000   0.2781
  15.300   1.7086   0.05972   0.05376  -0.0947  0.0794  1.0000  -5.5680   0.0000   0.0000   0.0000   0.2776
  15.400   1.7086   0.06083   0.05488  -0.0944  0.0773  1.0000  -5.6114   0.0000   0.0000   0.0000   0.2772
  15.500   1.7072   0.06209   0.05615  -0.0941  0.0755  1.0000  -5.6488   0.0000   0.0000   0.0000   0.2768
  15.600   1.7070   0.06323   0.05731  -0.0937  0.0737  1.0000  -5.6914   0.0000   0.0000   0.0000   0.2764
  15.700   1.7067   0.06439   0.05849  -0.0935  0.0717  1.0000  -5.7339   0.0000   0.0000   0.0000   0.2760
  15.800   1.7054   0.06568   0.05980  -0.0932  0.0700  1.0000  -5.7710   0.0000   0.0000   0.0000   0.2757
  15.900   1.7046   0.06692   0.06106  -0.0929  0.0684  1.0000  -5.8111   0.0000   0.0000   0.0000   0.2753
  16.000   1.7042   0.06812   0.06229  -0.0927  0.0666  1.0000  -5.8528   0.0000   0.0000   0.0000   0.2749
  16.100   1.7029   0.06945   0.06362  -0.0924  0.0650  1.0000  -5.8899   0.0000   0.0000   0.0000   0.2746
  16.200   1.7011   0.07084   0.06504  -0.0922  0.0636  1.0000  -5.9246   0.0000   0.0000   0.0000   0.2743
  16.300   1.7011   0.07201   0.06624  -0.0921  0.0619  1.0000  -5.9683   0.0000   0.0000   0.0000   0.2739
  16.400   1.6999   0.07336   0.06761  -0.0919  0.0603  1.0000  -6.0057   0.0000   0.0000   0.0000   0.2736
  16.500   1.6977   0.07482   0.06908  -0.0917  0.0590  1.0000  -6.0382   0.0000   0.0000   0.0000   0.2734
  16.600   1.6971   0.07610   0.07040  -0.0916  0.0575  1.0000  -6.0783   0.0000   0.0000   0.0000   0.2731
  16.700   1.6959   0.07745   0.07177  -0.0914  0.0560  1.0000  -6.1158   0.0000   0.0000   0.0000   0.2728
  16.800   1.6937   0.07892   0.07326  -0.0913  0.0547  1.0000  -6.1482   0.0000   0.0000   0.0000   0.2725
  16.900   1.6913   0.08044   0.07480  -0.0912  0.0535  1.0000  -6.1791   0.0000   0.0000   0.0000   0.2723
  17.000   1.6907   0.08173   0.07612  -0.0911  0.0520  1.0000  -6.2192   0.0000   0.0000   0.0000   0.2720
  17.100   1.6889   0.08319   0.07760  -0.0911  0.0507  1.0000  -6.2531   0.0000   0.0000   0.0000   0.2718
  17.200   1.6862   0.08477   0.07920  -0.0911  0.0495  1.0000  -6.2823   0.0000   0.0000   0.0000   0.2716
  17.300   1.6843   0.08627   0.08073  -0.0910  0.0483  1.0000  -6.3150   0.0000   0.0000   0.0000   0.2714
  17.400   1.6828   0.08771   0.08220  -0.0910  0.0470  1.0000  -6.3501   0.0000   0.0000   0.0000   0.2712
  17.500   1.6803   0.08930   0.08382  -0.0911  0.0459  1.0000  -6.3796   0.0000   0.0000   0.0000   0.2711
  17.600   1.6771   0.09099   0.08553  -0.0911  0.0449  1.0000  -6.4051   0.0000   0.0000   0.0000   0.2710
  17.700   1.6748   0.09258   0.08715  -0.0912  0.0438  1.0000  -6.4350   0.0000   0.0000   0.0000   0.2708
  17.800   1.6729   0.09410   0.08870  -0.0913  0.0427  1.0000  -6.4671   0.0000   0.0000   0.0000   0.2707
  17.900   1.6700   0.09578   0.09041  -0.0914  0.0417  1.0000  -6.4935   0.0000   0.0000   0.0000   0.2706
  18.000   1.6664   0.09756   0.09221  -0.0915  0.0408  1.0000  -6.5160   0.0000   0.0000   0.0000   0.2705
  18.100   1.6627   0.09938   0.09406  -0.0917  0.0400  1.0000  -6.5371   0.0000   0.0000   0.0000   0.2705
  18.200   1.6610   0.10090   0.09561  -0.0918  0.0389  1.0000  -6.5690   0.0000   0.0000   0.0000   0.2704
  18.300   1.6581   0.10258   0.09734  -0.0920  0.0380  1.0000  -6.5943   0.0000   0.0000   0.0000   0.2704
  18.400   1.6546   0.10437   0.09915  -0.0923  0.0372  1.0000  -6.6162   0.0000   0.0000   0.0000   0.2704
  18.500   1.6503   0.10628   0.10108  -0.0925  0.0365  1.0000  -6.6332   0.0000   0.0000   0.0000   0.2704
  18.600   1.6464   0.10817   0.10299  -0.0928  0.0358  1.0000  -6.6571   0.0000   0.0000   0.0000   0.2705
  18.700   1.6447   0.10974   0.10461  -0.0931  0.0349  1.0000  -6.6950   0.0000   0.0000   0.0000   0.2704
  18.800   1.6420   0.11144   0.10635  -0.0934  0.0341  1.0000  -6.7273   0.0000   0.0000   0.0000   0.2704
  18.900   1.6386   0.11327   0.10821  -0.0937  0.0334  1.0000  -6.7543   0.0000   0.0000   0.0000   0.2705
  19.000   1.6347   0.11519   0.11015  -0.0941  0.0328  1.0000  -6.7779   0.0000   0.0000   0.0000   0.2707
  19.100   1.6300   0.11723   0.11222  -0.0946  0.0323  1.0000  -6.7956   0.0000   0.0000   0.0000   0.2709
  19.200   1.6277   0.11893   0.11396  -0.0950  0.0316  1.0000  -6.8282   0.0000   0.0000   0.0000   0.2709
  19.300   1.6255   0.12061   0.11569  -0.0954  0.0308  1.0000  -6.8619   0.0000   0.0000   0.0000   0.2710
  19.400   1.6227   0.12239   0.11749  -0.0958  0.0302  1.0000  -6.8912   0.0000   0.0000   0.0000   0.2711
  19.500   1.6193   0.12427   0.11941  -0.0964  0.0296  1.0000  -6.9161   0.0000   0.0000   0.0000   0.2713
  19.600   1.6155   0.12622   0.12138  -0.0969  0.0291  1.0000  -6.9379   0.0000   0.0000   0.0000   0.2715
  19.700   1.6110   0.12830   0.12348  -0.0976  0.0286  1.0000  -6.9539   0.0000   0.0000   0.0000   0.2718
  19.800   1.6078   0.13017   0.12539  -0.0981  0.0281  1.0000  -6.9781   0.0000   0.0000   0.0000   0.2720
  19.900   1.6059   0.13181   0.12708  -0.0986  0.0275  1.0000  -7.0118   0.0000   0.0000   0.0000   0.2721
  20.000   1.6036   0.13354   0.12884  -0.0992  0.0269  1.0000  -7.0421   0.0000   0.0000   0.0000   0.2723


