xflr5 v6.57

 Calculated polar for: rev_root_140

 1 1 Reynolds number fixed          Mach number fixed         

 xtrf =   1.000 (top)        1.000 (bottom)
 Mach =   0.000     Re =     0.420 e 6     Ncrit =   9.000

  alpha     CL        CD       CDp       Cm    Top Xtr Bot Xtr   Cpmin    Chinge    XCp    
 ------- -------- --------- --------- -------- ------- ------- -------- --------- ---------
  -9.800  -0.2772   0.05204   0.04896  -0.1157  0.8630  0.0276  -4.3621   0.0000   0.0000   0.0000  -0.1978
  -9.700  -0.2746   0.05059   0.04749  -0.1172  0.8609  0.0277  -4.3413   0.0000   0.0000   0.0000  -0.2072
  -9.600  -0.2719   0.04890   0.04580  -0.1194  0.8579  0.0279  -4.3286   0.0000   0.0000   0.0000  -0.2191
  -9.500  -0.2689   0.04732   0.04420  -0.1216  0.8553  0.0280  -4.3095   0.0000   0.0000   0.0000  -0.2322
  -9.400  -0.2653   0.04590   0.04275  -0.1239  0.8531  0.0281  -4.2829   0.0000   0.0000   0.0000  -0.2469
  -9.300  -0.2590   0.04443   0.04126  -0.1271  0.8506  0.0283  -4.2423   0.0000   0.0000   0.0000  -0.2707
  -9.200  -0.2513   0.04338   0.04018  -0.1297  0.8481  0.0286  -4.1827   0.0000   0.0000   0.0000  -0.2965
  -9.100  -0.2420   0.04320   0.04000  -0.1306  0.8462  0.0289  -4.0879   0.0000   0.0000   0.0000  -0.3203
  -8.900  -0.2742   0.02547   0.02035  -0.1496  0.8388  0.0276  -4.9414   0.0000   0.0000   0.0000  -0.3235
  -8.800  -0.2652   0.02471   0.01952  -0.1499  0.8372  0.0278  -4.8747   0.0000   0.0000   0.0000  -0.3436
  -8.700  -0.2557   0.02414   0.01889  -0.1502  0.8358  0.0280  -4.7991   0.0000   0.0000   0.0000  -0.3664
  -8.600  -0.2459   0.02363   0.01833  -0.1505  0.8344  0.0282  -4.7215   0.0000   0.0000   0.0000  -0.3914
  -8.500  -0.2362   0.02318   0.01784  -0.1506  0.8325  0.0284  -4.6431   0.0000   0.0000   0.0000  -0.4183
  -8.400  -0.2262   0.02275   0.01737  -0.1508  0.8307  0.0286  -4.5640   0.0000   0.0000   0.0000  -0.4481
  -8.300  -0.2161   0.02229   0.01684  -0.1510  0.8291  0.0289  -4.4881   0.0000   0.0000   0.0000  -0.4810
  -8.200  -0.2059   0.02180   0.01627  -0.1512  0.8277  0.0291  -4.4146   0.0000   0.0000   0.0000  -0.5177
  -8.100  -0.1956   0.02130   0.01567  -0.1515  0.8264  0.0294  -4.3443   0.0000   0.0000   0.0000  -0.5587
  -8.000  -0.1854   0.02081   0.01509  -0.1517  0.8249  0.0297  -4.2828   0.0000   0.0000   0.0000  -0.6038
  -7.900  -0.1752   0.02033   0.01453  -0.1518  0.8231  0.0300  -4.2211   0.0000   0.0000   0.0000  -0.6540
  -7.800  -0.1647   0.01990   0.01400  -0.1520  0.8214  0.0303  -4.1576   0.0000   0.0000   0.0000  -0.7118
  -7.700  -0.1541   0.01951   0.01350  -0.1521  0.8199  0.0307  -4.0934   0.0000   0.0000   0.0000  -0.7788
  -7.600  -0.1432   0.01916   0.01303  -0.1523  0.8186  0.0311  -4.0280   0.0000   0.0000   0.0000  -0.8576
  -7.500  -0.1320   0.01890   0.01263  -0.1525  0.8174  0.0314  -3.9599   0.0000   0.0000   0.0000  -0.9518
  -7.400  -0.1217   0.01830   0.01197  -0.1526  0.8161  0.0317  -3.8993   0.0000   0.0000   0.0000  -1.0540
  -7.300  -0.1115   0.01784   0.01152  -0.1527  0.8144  0.0321  -3.8293   0.0000   0.0000   0.0000  -1.1732
  -7.200  -0.1009   0.01753   0.01120  -0.1528  0.8128  0.0324  -3.7547   0.0000   0.0000   0.0000  -1.3229
  -7.100  -0.0901   0.01724   0.01090  -0.1529  0.8113  0.0327  -3.6802   0.0000   0.0000   0.0000  -1.5117
  -7.000  -0.0791   0.01698   0.01060  -0.1530  0.8099  0.0331  -3.6123   0.0000   0.0000   0.0000  -1.7563
  -6.900  -0.0680   0.01672   0.01030  -0.1531  0.8087  0.0334  -3.5471   0.0000   0.0000   0.0000  -2.0841
  -6.800  -0.0568   0.01647   0.00999  -0.1532  0.8075  0.0338  -3.4825   0.0000   0.0000   0.0000  -2.5454
  -6.700  -0.0460   0.01622   0.00971  -0.1532  0.8058  0.0342  -3.4201   0.0000   0.0000   0.0000  -3.2000
  -6.600  -0.0351   0.01597   0.00943  -0.1532  0.8040  0.0346  -3.3585   0.0000   0.0000   0.0000  -4.2681
  -6.500  -0.0241   0.01573   0.00914  -0.1533  0.8024  0.0350  -3.2969   0.0000   0.0000   0.0000  -6.3401
  -6.400  -0.0128   0.01553   0.00888  -0.1534  0.8010  0.0355  -3.2343   0.0000   0.0000   0.0000  -12.1161
  -6.300  -0.0013   0.01538   0.00866  -0.1534  0.7997  0.0359  -3.1698   0.0000   0.0000   0.0000  -118.0835
  -6.200   0.0095   0.01499   0.00825  -0.1536  0.7985  0.0365  -3.1095   0.0000   0.0000   0.0000  16.8876
  -6.100   0.0205   0.01475   0.00803  -0.1537  0.7972  0.0371  -3.0420   0.0000   0.0000   0.0000   7.9785
  -6.000   0.0314   0.01456   0.00786  -0.1537  0.7955  0.0377  -2.9750   0.0000   0.0000   0.0000   5.3004
  -5.900   0.0425   0.01439   0.00768  -0.1538  0.7939  0.0383  -2.9092   0.0000   0.0000   0.0000   3.9825
  -5.800   0.0537   0.01421   0.00748  -0.1538  0.7924  0.0389  -2.8452   0.0000   0.0000   0.0000   3.2028
  -5.700   0.0650   0.01404   0.00727  -0.1539  0.7910  0.0396  -2.7826   0.0000   0.0000   0.0000   2.6875
  -5.600   0.0765   0.01387   0.00706  -0.1540  0.7898  0.0402  -2.7202   0.0000   0.0000   0.0000   2.3214
  -5.500   0.0881   0.01374   0.00686  -0.1541  0.7887  0.0408  -2.6575   0.0000   0.0000   0.0000   2.0477
  -5.400   0.0990   0.01342   0.00659  -0.1542  0.7871  0.0416  -2.5980   0.0000   0.0000   0.0000   1.8513
  -5.300   0.1100   0.01325   0.00644  -0.1543  0.7855  0.0424  -2.5346   0.0000   0.0000   0.0000   1.6907
  -5.200   0.1212   0.01311   0.00629  -0.1544  0.7839  0.0434  -2.4779   0.0000   0.0000   0.0000   1.5570
  -5.100   0.1326   0.01297   0.00614  -0.1545  0.7825  0.0445  -2.4227   0.0000   0.0000   0.0000   1.4446
  -5.000   0.1442   0.01285   0.00597  -0.1546  0.7812  0.0458  -2.3685   0.0000   0.0000   0.0000   1.3486
  -4.900   0.1557   0.01264   0.00577  -0.1547  0.7800  0.0472  -2.3123   0.0000   0.0000   0.0000   1.2683
  -4.800   0.1674   0.01253   0.00565  -0.1549  0.7790  0.0489  -2.2538   0.0000   0.0000   0.0000   1.1974
  -4.700   0.1788   0.01243   0.00554  -0.1549  0.7775  0.0509  -2.1997   0.0000   0.0000   0.0000   1.1370
  -4.600   0.1899   0.01226   0.00540  -0.1550  0.7758  0.0530  -2.1451   0.0000   0.0000   0.0000   1.0850
  -4.500   0.2013   0.01216   0.00529  -0.1551  0.7742  0.0556  -2.0901   0.0000   0.0000   0.0000   1.0377
  -4.400   0.2128   0.01201   0.00515  -0.1552  0.7727  0.0585  -2.0361   0.0000   0.0000   0.0000   0.9954
  -4.300   0.2244   0.01191   0.00503  -0.1553  0.7714  0.0620  -1.9809   0.0000   0.0000   0.0000   0.9568
  -4.200   0.2361   0.01176   0.00489  -0.1555  0.7702  0.0656  -1.9253   0.0000   0.0000   0.0000   0.9221
  -4.100   0.2480   0.01165   0.00476  -0.1557  0.7691  0.0700  -1.8744   0.0000   0.0000   0.0000   0.8903
  -4.000   0.2592   0.01154   0.00467  -0.1558  0.7674  0.0745  -1.8250   0.0000   0.0000   0.0000   0.8624
  -3.900   0.2705   0.01142   0.00459  -0.1558  0.7656  0.0794  -1.7752   0.0000   0.0000   0.0000   0.8370
  -3.800   0.2819   0.01132   0.00451  -0.1559  0.7640  0.0849  -1.7249   0.0000   0.0000   0.0000   0.8132
  -3.700   0.2934   0.01123   0.00443  -0.1560  0.7625  0.0913  -1.6741   0.0000   0.0000   0.0000   0.7911
  -3.600   0.3051   0.01114   0.00434  -0.1562  0.7611  0.0984  -1.6229   0.0000   0.0000   0.0000   0.7706
  -3.500   0.3169   0.01105   0.00426  -0.1563  0.7598  0.1062  -1.5715   0.0000   0.0000   0.0000   0.7514
  -3.400   0.3287   0.01096   0.00419  -0.1565  0.7586  0.1147  -1.5203   0.0000   0.0000   0.0000   0.7337
  -3.300   0.3398   0.01088   0.00416  -0.1566  0.7567  0.1238  -1.4708   0.0000   0.0000   0.0000   0.7178
  -3.200   0.3511   0.01080   0.00412  -0.1566  0.7550  0.1338  -1.4209   0.0000   0.0000   0.0000   0.7027
  -3.100   0.3626   0.01073   0.00407  -0.1567  0.7534  0.1444  -1.3710   0.0000   0.0000   0.0000   0.6884
  -3.000   0.3742   0.01065   0.00402  -0.1569  0.7519  0.1554  -1.3210   0.0000   0.0000   0.0000   0.6748
  -2.900   0.3860   0.01058   0.00397  -0.1570  0.7506  0.1672  -1.2709   0.0000   0.0000   0.0000   0.6621
  -2.800   0.3978   0.01051   0.00392  -0.1572  0.7495  0.1801  -1.2209   0.0000   0.0000   0.0000   0.6500
  -2.700   0.4093   0.01046   0.00390  -0.1573  0.7480  0.1931  -1.1722   0.0000   0.0000   0.0000   0.6388
  -2.600   0.4205   0.01039   0.00388  -0.1574  0.7462  0.2057  -1.1247   0.0000   0.0000   0.0000   0.6284
  -2.500   0.4319   0.01033   0.00387  -0.1575  0.7445  0.2188  -1.0771   0.0000   0.0000   0.0000   0.6184
  -2.400   0.4434   0.01027   0.00384  -0.1576  0.7429  0.2320  -1.0331   0.0000   0.0000   0.0000   0.6089
  -2.300   0.4551   0.01022   0.00380  -0.1577  0.7415  0.2450  -0.9897   0.0000   0.0000   0.0000   0.5997
  -2.200   0.4669   0.01017   0.00377  -0.1579  0.7401  0.2578  -0.9464   0.0000   0.0000   0.0000   0.5910
  -2.100   0.4788   0.01011   0.00373  -0.1580  0.7389  0.2714  -0.9032   0.0000   0.0000   0.0000   0.5826
  -2.000   0.4899   0.01006   0.00373  -0.1581  0.7369  0.2854  -0.8621   0.0000   0.0000   0.0000   0.5750
  -1.900   0.5011   0.01002   0.00373  -0.1581  0.7350  0.2997  -0.8259   0.0000   0.0000   0.0000   0.5676
  -1.800   0.5126   0.00997   0.00371  -0.1582  0.7331  0.3146  -0.8337   0.0000   0.0000   0.0000   0.5605
  -1.700   0.5242   0.00991   0.00368  -0.1583  0.7315  0.3301  -0.8417   0.0000   0.0000   0.0000   0.5536
  -1.600   0.5360   0.00985   0.00366  -0.1585  0.7300  0.3475  -0.8498   0.0000   0.0000   0.0000   0.5470
  -1.500   0.5479   0.00981   0.00363  -0.1586  0.7287  0.3654  -0.8580   0.0000   0.0000   0.0000   0.5406
  -1.400   0.5589   0.00975   0.00365  -0.1587  0.7266  0.3828  -0.8656   0.0000   0.0000   0.0000   0.5348
  -1.300   0.5702   0.00971   0.00365  -0.1587  0.7246  0.4006  -0.8734   0.0000   0.0000   0.0000   0.5291
  -1.200   0.5816   0.00966   0.00365  -0.1588  0.7228  0.4182  -0.8813   0.0000   0.0000   0.0000   0.5235
  -1.100   0.5932   0.00961   0.00363  -0.1589  0.7212  0.4359  -0.8893   0.0000   0.0000   0.0000   0.5181
  -1.000   0.6050   0.00957   0.00362  -0.1590  0.7198  0.4542  -0.8975   0.0000   0.0000   0.0000   0.5130
  -0.900   0.6168   0.00953   0.00361  -0.1592  0.7185  0.4737  -0.9069   0.0000   0.0000   0.0000   0.5080
  -0.700   0.6390   0.00944   0.00366  -0.1592  0.7144  0.5150  -0.9245   0.0000   0.0000   0.0000   0.4987
  -0.600   0.6503   0.00939   0.00367  -0.1593  0.7126  0.5375  -0.9335   0.0000   0.0000   0.0000   0.4943
  -0.500   0.6618   0.00934   0.00367  -0.1593  0.7109  0.5615  -0.9427   0.0000   0.0000   0.0000   0.4899
  -0.400   0.6733   0.00929   0.00367  -0.1594  0.7094  0.5857  -0.9519   0.0000   0.0000   0.0000   0.4857
  -0.300   0.6849   0.00925   0.00368  -0.1594  0.7080  0.6101  -0.9614   0.0000   0.0000   0.0000   0.4816
  -0.200   0.6956   0.00922   0.00372  -0.1593  0.7058  0.6326  -0.9703   0.0000   0.0000   0.0000   0.4778
  -0.100   0.7064   0.00918   0.00376  -0.1592  0.7036  0.6539  -0.9793   0.0000   0.0000   0.0000   0.4740
   0.000   0.7174   0.00916   0.00377  -0.1592  0.7016  0.6754  -0.9885   0.0000   0.0000   0.0000   0.4702
   0.100   0.7285   0.00913   0.00378  -0.1591  0.6997  0.6956  -0.9978   0.0000   0.0000   0.0000   0.4666
   0.200   0.7398   0.00912   0.00379  -0.1590  0.6981  0.7153  -1.0072   0.0000   0.0000   0.0000   0.4630
   0.300   0.7503   0.00910   0.00382  -0.1588  0.6959  0.7337  -1.0161   0.0000   0.0000   0.0000   0.4596
   0.400   0.7607   0.00909   0.00385  -0.1587  0.6934  0.7505  -1.0250   0.0000   0.0000   0.0000   0.4563
   0.500   0.7713   0.00908   0.00387  -0.1585  0.6912  0.7654  -1.0340   0.0000   0.0000   0.0000   0.4531
   0.600   0.7821   0.00907   0.00387  -0.1583  0.6893  0.7793  -1.0432   0.0000   0.0000   0.0000   0.4499
   0.700   0.7931   0.00907   0.00387  -0.1582  0.6877  0.7921  -1.0525   0.0000   0.0000   0.0000   0.4468
   0.800   0.8036   0.00907   0.00390  -0.1580  0.6856  0.8039  -1.0617   0.0000   0.0000   0.0000   0.4438
   0.900   0.8137   0.00906   0.00393  -0.1578  0.6832  0.8152  -1.0717   0.0000   0.0000   0.0000   0.4409
   1.000   0.8240   0.00905   0.00394  -0.1575  0.6810  0.8267  -1.0820   0.0000   0.0000   0.0000   0.4380
   1.100   0.8344   0.00905   0.00394  -0.1573  0.6791  0.8387  -1.0923   0.0000   0.0000   0.0000   0.4352
   1.200   0.8447   0.00904   0.00394  -0.1570  0.6774  0.8507  -1.1026   0.0000   0.0000   0.0000   0.4325
   1.300   0.8542   0.00903   0.00395  -0.1566  0.6754  0.8629  -1.1124   0.0000   0.0000   0.0000   0.4298
   1.400   0.8633   0.00901   0.00397  -0.1561  0.6728  0.8758  -1.1218   0.0000   0.0000   0.0000   0.4271
   1.500   0.8723   0.00898   0.00397  -0.1555  0.6704  0.8892  -1.1316   0.0000   0.0000   0.0000   0.4245
   1.600   0.8811   0.00895   0.00395  -0.1549  0.6683  0.9036  -1.1413   0.0000   0.0000   0.0000   0.4218
   1.700   0.8896   0.00891   0.00392  -0.1542  0.6664  0.9200  -1.1509   0.0000   0.0000   0.0000   0.4192
   1.800   0.8977   0.00886   0.00390  -0.1534  0.6636  0.9414  -1.1601   0.0000   0.0000   0.0000   0.4167
   1.900   0.9108   0.00879   0.00385  -0.1538  0.6606  0.9989  -1.1725   0.0000   0.0000   0.0000   0.4145
   2.000   0.9228   0.00881   0.00384  -0.1540  0.6580  1.0000  -1.1842   0.0000   0.0000   0.0000   0.4124
   2.100   0.9348   0.00883   0.00382  -0.1542  0.6558  1.0000  -1.1961   0.0000   0.0000   0.0000   0.4103
   2.200   0.9461   0.00886   0.00385  -0.1543  0.6527  1.0000  -1.2087   0.0000   0.0000   0.0000   0.4083
   2.300   0.9575   0.00889   0.00387  -0.1544  0.6498  1.0000  -1.2222   0.0000   0.0000   0.0000   0.4063
   2.400   0.9691   0.00892   0.00388  -0.1545  0.6473  1.0000  -1.2359   0.0000   0.0000   0.0000   0.4044
   2.500   0.9810   0.00895   0.00387  -0.1547  0.6452  1.0000  -1.2498   0.0000   0.0000   0.0000   0.4025
   2.600   0.9922   0.00899   0.00391  -0.1547  0.6423  1.0000  -1.2632   0.0000   0.0000   0.0000   0.4006
   2.700   1.0034   0.00902   0.00394  -0.1548  0.6393  1.0000  -1.2767   0.0000   0.0000   0.0000   0.3988
   2.800   1.0148   0.00906   0.00396  -0.1549  0.6367  1.0000  -1.2903   0.0000   0.0000   0.0000   0.3970
   2.900   1.0264   0.00910   0.00396  -0.1550  0.6344  1.0000  -1.3042   0.0000   0.0000   0.0000   0.3953
   3.000   1.0373   0.00914   0.00401  -0.1550  0.6312  1.0000  -1.3175   0.0000   0.0000   0.0000   0.3936
   3.100   1.0484   0.00917   0.00404  -0.1550  0.6279  1.0000  -1.3310   0.0000   0.0000   0.0000   0.3919
   3.200   1.0596   0.00922   0.00406  -0.1551  0.6251  1.0000  -1.3447   0.0000   0.0000   0.0000   0.3902
   3.300   1.0707   0.00926   0.00408  -0.1551  0.6220  1.0000  -1.3583   0.0000   0.0000   0.0000   0.3886
   3.400   1.0815   0.00930   0.00412  -0.1550  0.6183  1.0000  -1.3716   0.0000   0.0000   0.0000   0.3870
   3.500   1.0924   0.00934   0.00415  -0.1550  0.6150  1.0000  -1.3852   0.0000   0.0000   0.0000   0.3854
   3.600   1.1034   0.00940   0.00417  -0.1550  0.6119  1.0000  -1.3988   0.0000   0.0000   0.0000   0.3838
   3.700   1.1141   0.00944   0.00422  -0.1550  0.6079  1.0000  -1.4121   0.0000   0.0000   0.0000   0.3823
   3.800   1.1249   0.00949   0.00425  -0.1550  0.6045  1.0000  -1.4260   0.0000   0.0000   0.0000   0.3808
   3.900   1.1358   0.00955   0.00428  -0.1549  0.6015  1.0000  -1.4401   0.0000   0.0000   0.0000   0.3793
   4.000   1.1464   0.00959   0.00434  -0.1549  0.5976  1.0000  -1.4548   0.0000   0.0000   0.0000   0.3779
   4.100   1.1572   0.00965   0.00439  -0.1548  0.5941  1.0000  -1.4701   0.0000   0.0000   0.0000   0.3764
   4.200   1.1679   0.00972   0.00442  -0.1548  0.5911  1.0000  -1.4855   0.0000   0.0000   0.0000   0.3750
   4.300   1.1785   0.00977   0.00449  -0.1547  0.5872  1.0000  -1.5011   0.0000   0.0000   0.0000   0.3737
   4.400   1.1891   0.00983   0.00454  -0.1547  0.5835  1.0000  -1.5168   0.0000   0.0000   0.0000   0.3723
   4.500   1.1996   0.00991   0.00458  -0.1546  0.5803  1.0000  -1.5326   0.0000   0.0000   0.0000   0.3709
   4.600   1.2101   0.00997   0.00465  -0.1545  0.5763  1.0000  -1.5483   0.0000   0.0000   0.0000   0.3696
   4.700   1.2205   0.01003   0.00471  -0.1544  0.5725  1.0000  -1.5645   0.0000   0.0000   0.0000   0.3683
   4.800   1.2309   0.01012   0.00476  -0.1543  0.5691  1.0000  -1.5812   0.0000   0.0000   0.0000   0.3670
   4.900   1.2412   0.01018   0.00484  -0.1542  0.5648  1.0000  -1.5979   0.0000   0.0000   0.0000   0.3657
   5.000   1.2514   0.01026   0.00490  -0.1541  0.5607  1.0000  -1.6145   0.0000   0.0000   0.0000   0.3645
   5.100   1.2615   0.01034   0.00497  -0.1539  0.5566  1.0000  -1.6312   0.0000   0.0000   0.0000   0.3632
   5.200   1.2715   0.01042   0.00504  -0.1537  0.5519  1.0000  -1.6477   0.0000   0.0000   0.0000   0.3620
   5.300   1.2814   0.01052   0.00511  -0.1536  0.5478  1.0000  -1.6657   0.0000   0.0000   0.0000   0.3608
   5.400   1.2914   0.01059   0.00520  -0.1534  0.5431  1.0000  -1.6850   0.0000   0.0000   0.0000   0.3596
   5.500   1.3012   0.01069   0.00527  -0.1532  0.5387  1.0000  -1.7045   0.0000   0.0000   0.0000   0.3584
   5.600   1.3110   0.01078   0.00535  -0.1530  0.5344  1.0000  -1.7241   0.0000   0.0000   0.0000   0.3572
   5.700   1.3208   0.01087   0.00544  -0.1528  0.5298  1.0000  -1.7437   0.0000   0.0000   0.0000   0.3560
   5.800   1.3304   0.01098   0.00553  -0.1526  0.5257  1.0000  -1.7632   0.0000   0.0000   0.0000   0.3549
   5.900   1.3401   0.01107   0.00562  -0.1524  0.5210  1.0000  -1.7828   0.0000   0.0000   0.0000   0.3537
   6.000   1.3495   0.01118   0.00571  -0.1521  0.5165  1.0000  -1.8022   0.0000   0.0000   0.0000   0.3526
   6.100   1.3590   0.01129   0.00581  -0.1519  0.5119  1.0000  -1.8218   0.0000   0.0000   0.0000   0.3515
   6.200   1.3683   0.01140   0.00592  -0.1516  0.5070  1.0000  -1.8460   0.0000   0.0000   0.0000   0.3504
   6.300   1.3774   0.01153   0.00602  -0.1513  0.5025  1.0000  -1.8700   0.0000   0.0000   0.0000   0.3493
   6.400   1.3866   0.01163   0.00613  -0.1510  0.4971  1.0000  -1.8942   0.0000   0.0000   0.0000   0.3482
   6.500   1.3952   0.01178   0.00624  -0.1506  0.4924  1.0000  -1.9178   0.0000   0.0000   0.0000   0.3471
   6.600   1.4044   0.01189   0.00636  -0.1503  0.4869  1.0000  -1.9421   0.0000   0.0000   0.0000   0.3460
   6.700   1.4128   0.01204   0.00648  -0.1499  0.4820  1.0000  -1.9656   0.0000   0.0000   0.0000   0.3449
   6.800   1.4217   0.01215   0.00660  -0.1496  0.4766  1.0000  -1.9898   0.0000   0.0000   0.0000   0.3439
   6.900   1.4300   0.01230   0.00672  -0.1491  0.4715  1.0000  -2.0133   0.0000   0.0000   0.0000   0.3428
   7.000   1.4387   0.01243   0.00686  -0.1487  0.4663  1.0000  -2.0373   0.0000   0.0000   0.0000   0.3417
   7.100   1.4469   0.01258   0.00699  -0.1483  0.4613  1.0000  -2.0607   0.0000   0.0000   0.0000   0.3407
   7.200   1.4552   0.01272   0.00713  -0.1479  0.4561  1.0000  -2.0845   0.0000   0.0000   0.0000   0.3397
   7.300   1.4631   0.01288   0.00727  -0.1474  0.4508  1.0000  -2.1077   0.0000   0.0000   0.0000   0.3386
   7.400   1.4710   0.01304   0.00742  -0.1469  0.4455  1.0000  -2.1318   0.0000   0.0000   0.0000   0.3376
   7.500   1.4784   0.01321   0.00757  -0.1463  0.4400  1.0000  -2.1613   0.0000   0.0000   0.0000   0.3365
   7.600   1.4859   0.01338   0.00773  -0.1457  0.4344  1.0000  -2.1909   0.0000   0.0000   0.0000   0.3355
   7.700   1.4928   0.01356   0.00789  -0.1451  0.4288  1.0000  -2.2196   0.0000   0.0000   0.0000   0.3344
   7.800   1.4995   0.01373   0.00805  -0.1444  0.4233  1.0000  -2.2481   0.0000   0.0000   0.0000   0.3334
   7.900   1.5056   0.01392   0.00823  -0.1435  0.4178  1.0000  -2.2758   0.0000   0.0000   0.0000   0.3323
   8.000   1.5123   0.01410   0.00841  -0.1429  0.4123  1.0000  -2.3045   0.0000   0.0000   0.0000   0.3312
   8.100   1.5183   0.01431   0.00860  -0.1421  0.4069  1.0000  -2.3322   0.0000   0.0000   0.0000   0.3302
   8.200   1.5248   0.01450   0.00879  -0.1414  0.4015  1.0000  -2.3608   0.0000   0.0000   0.0000   0.3291
   8.300   1.5305   0.01473   0.00899  -0.1405  0.3962  1.0000  -2.3883   0.0000   0.0000   0.0000   0.3281
   8.400   1.5368   0.01494   0.00920  -0.1398  0.3909  1.0000  -2.4166   0.0000   0.0000   0.0000   0.3271
   8.500   1.5423   0.01518   0.00943  -0.1390  0.3856  1.0000  -2.4438   0.0000   0.0000   0.0000   0.3260
   8.600   1.5482   0.01541   0.00965  -0.1382  0.3804  1.0000  -2.4718   0.0000   0.0000   0.0000   0.3250
   8.700   1.5535   0.01567   0.00989  -0.1374  0.3753  1.0000  -2.4988   0.0000   0.0000   0.0000   0.3240
   8.800   1.5592   0.01592   0.01014  -0.1366  0.3704  1.0000  -2.5265   0.0000   0.0000   0.0000   0.3231
   8.900   1.5645   0.01619   0.01040  -0.1358  0.3653  1.0000  -2.5536   0.0000   0.0000   0.0000   0.3221
   9.000   1.5698   0.01646   0.01067  -0.1350  0.3603  1.0000  -2.5808   0.0000   0.0000   0.0000   0.3211
   9.100   1.5749   0.01675   0.01095  -0.1342  0.3548  1.0000  -2.6115   0.0000   0.0000   0.0000   0.3201
   9.200   1.5799   0.01705   0.01124  -0.1334  0.3495  1.0000  -2.6479   0.0000   0.0000   0.0000   0.3192
   9.300   1.5845   0.01738   0.01155  -0.1326  0.3439  1.0000  -2.6856   0.0000   0.0000   0.0000   0.3182
   9.400   1.5894   0.01770   0.01187  -0.1318  0.3383  1.0000  -2.7250   0.0000   0.0000   0.0000   0.3173
   9.500   1.5934   0.01807   0.01222  -0.1309  0.3327  1.0000  -2.7639   0.0000   0.0000   0.0000   0.3164
   9.600   1.5982   0.01840   0.01255  -0.1301  0.3270  1.0000  -2.8050   0.0000   0.0000   0.0000   0.3155
   9.700   1.6018   0.01881   0.01293  -0.1292  0.3219  1.0000  -2.8494   0.0000   0.0000   0.0000   0.3145
   9.800   1.6068   0.01915   0.01327  -0.1285  0.3164  1.0000  -2.9034   0.0000   0.0000   0.0000   0.3137
  10.000   1.6153   0.01994   0.01405  -0.1270  0.3062  1.0000  -3.0071   0.0000   0.0000   0.0000   0.3119
  10.100   1.6186   0.02040   0.01449  -0.1261  0.3015  1.0000  -3.0560   0.0000   0.0000   0.0000   0.3110
  10.200   1.6236   0.02076   0.01486  -0.1254  0.2963  1.0000  -3.1111   0.0000   0.0000   0.0000   0.3102
  10.300   1.6268   0.02124   0.01532  -0.1246  0.2916  1.0000  -3.1604   0.0000   0.0000   0.0000   0.3093
  10.400   1.6317   0.02163   0.01572  -0.1240  0.2864  1.0000  -3.2158   0.0000   0.0000   0.0000   0.3085
  10.500   1.6348   0.02213   0.01620  -0.1231  0.2817  1.0000  -3.2652   0.0000   0.0000   0.0000   0.3077
  10.600   1.6394   0.02254   0.01662  -0.1225  0.2766  1.0000  -3.3201   0.0000   0.0000   0.0000   0.3069
  10.700   1.6423   0.02307   0.01713  -0.1217  0.2720  1.0000  -3.3691   0.0000   0.0000   0.0000   0.3061
  10.800   1.6465   0.02351   0.01758  -0.1210  0.2671  1.0000  -3.4235   0.0000   0.0000   0.0000   0.3053
  10.900   1.6491   0.02407   0.01812  -0.1202  0.2626  1.0000  -3.4720   0.0000   0.0000   0.0000   0.3045
  11.000   1.6530   0.02454   0.01860  -0.1195  0.2575  1.0000  -3.5256   0.0000   0.0000   0.0000   0.3037
  11.100   1.6551   0.02515   0.01919  -0.1187  0.2527  1.0000  -3.5728   0.0000   0.0000   0.0000   0.3029
  11.200   1.6588   0.02566   0.01970  -0.1180  0.2473  1.0000  -3.6260   0.0000   0.0000   0.0000   0.3022
  11.300   1.6606   0.02629   0.02031  -0.1172  0.2425  1.0000  -3.6728   0.0000   0.0000   0.0000   0.3014
  11.400   1.6638   0.02684   0.02086  -0.1165  0.2369  1.0000  -3.7246   0.0000   0.0000   0.0000   0.3006
  11.500   1.6659   0.02747   0.02148  -0.1157  0.2318  1.0000  -3.7729   0.0000   0.0000   0.0000   0.2999
  11.600   1.6683   0.02809   0.02209  -0.1150  0.2263  1.0000  -3.8220   0.0000   0.0000   0.0000   0.2991
  11.700   1.6708   0.02871   0.02269  -0.1143  0.2210  1.0000  -3.8720   0.0000   0.0000   0.0000   0.2984
  11.800   1.6721   0.02942   0.02338  -0.1135  0.2159  1.0000  -3.9176   0.0000   0.0000   0.0000   0.2977
  11.900   1.6748   0.03003   0.02399  -0.1128  0.2106  1.0000  -3.9688   0.0000   0.0000   0.0000   0.2970
  12.000   1.6761   0.03075   0.02469  -0.1120  0.2058  1.0000  -4.0147   0.0000   0.0000   0.0000   0.2962
  12.100   1.6783   0.03140   0.02535  -0.1113  0.2007  1.0000  -4.0644   0.0000   0.0000   0.0000   0.2955
  12.200   1.6797   0.03211   0.02605  -0.1106  0.1961  1.0000  -4.1112   0.0000   0.0000   0.0000   0.2948
  12.300   1.6813   0.03283   0.02676  -0.1099  0.1913  1.0000  -4.1586   0.0000   0.0000   0.0000   0.2941
  12.400   1.6829   0.03355   0.02747  -0.1092  0.1868  1.0000  -4.2064   0.0000   0.0000   0.0000   0.2935
  12.500   1.6840   0.03431   0.02823  -0.1084  0.1822  1.0000  -4.2522   0.0000   0.0000   0.0000   0.2928
  12.600   1.6858   0.03503   0.02894  -0.1078  0.1776  1.0000  -4.3011   0.0000   0.0000   0.0000   0.2921
  12.700   1.6865   0.03585   0.02975  -0.1071  0.1732  1.0000  -4.3456   0.0000   0.0000   0.0000   0.2914
  12.800   1.6885   0.03656   0.03047  -0.1065  0.1684  1.0000  -4.3954   0.0000   0.0000   0.0000   0.2908
  12.900   1.6889   0.03742   0.03131  -0.1058  0.1642  1.0000  -4.4390   0.0000   0.0000   0.0000   0.2902
  13.000   1.6906   0.03817   0.03207  -0.1051  0.1597  1.0000  -4.4879   0.0000   0.0000   0.0000   0.2895
  13.100   1.6910   0.03904   0.03293  -0.1045  0.1558  1.0000  -4.5316   0.0000   0.0000   0.0000   0.2889
  13.200   1.6923   0.03985   0.03374  -0.1039  0.1516  1.0000  -4.5791   0.0000   0.0000   0.0000   0.2883
  13.300   1.6925   0.04075   0.03464  -0.1032  0.1479  1.0000  -4.6225   0.0000   0.0000   0.0000   0.2877
  13.400   1.6936   0.04159   0.03548  -0.1026  0.1439  1.0000  -4.6694   0.0000   0.0000   0.0000   0.2871
  13.500   1.6937   0.04254   0.03642  -0.1020  0.1405  1.0000  -4.7122   0.0000   0.0000   0.0000   0.2865
  13.600   1.6951   0.04337   0.03727  -0.1015  0.1366  1.0000  -4.7604   0.0000   0.0000   0.0000   0.2859
  13.700   1.6951   0.04435   0.03823  -0.1009  0.1333  1.0000  -4.8028   0.0000   0.0000   0.0000   0.2853
  13.800   1.6963   0.04521   0.03911  -0.1004  0.1295  1.0000  -4.8508   0.0000   0.0000   0.0000   0.2848
  13.900   1.6959   0.04624   0.04013  -0.0998  0.1264  1.0000  -4.8914   0.0000   0.0000   0.0000   0.2842
  14.000   1.6972   0.04710   0.04101  -0.0993  0.1229  1.0000  -4.9397   0.0000   0.0000   0.0000   0.2837
  14.100   1.6967   0.04815   0.04205  -0.0988  0.1198  1.0000  -4.9804   0.0000   0.0000   0.0000   0.2831
  14.200   1.6976   0.04907   0.04299  -0.0983  0.1166  1.0000  -5.0271   0.0000   0.0000   0.0000   0.2826
  14.300   1.6973   0.05012   0.04404  -0.0978  0.1135  1.0000  -5.0687   0.0000   0.0000   0.0000   0.2821
  14.400   1.6975   0.05113   0.04505  -0.0973  0.1105  1.0000  -5.1128   0.0000   0.0000   0.0000   0.2816
  14.500   1.6974   0.05219   0.04612  -0.0969  0.1075  1.0000  -5.1551   0.0000   0.0000   0.0000   0.2811
  14.600   1.6969   0.05330   0.04723  -0.0964  0.1049  1.0000  -5.1958   0.0000   0.0000   0.0000   0.2806
  14.700   1.6972   0.05432   0.04827  -0.0960  0.1019  1.0000  -5.2404   0.0000   0.0000   0.0000   0.2802
  14.800   1.6960   0.05552   0.04947  -0.0956  0.0994  1.0000  -5.2780   0.0000   0.0000   0.0000   0.2797
  14.900   1.6967   0.05653   0.05050  -0.0952  0.0966  1.0000  -5.3240   0.0000   0.0000   0.0000   0.2792
  15.000   1.6960   0.05770   0.05167  -0.0948  0.0940  1.0000  -5.3640   0.0000   0.0000   0.0000   0.2788
  15.100   1.6955   0.05884   0.05283  -0.0945  0.0917  1.0000  -5.4051   0.0000   0.0000   0.0000   0.2784
  15.200   1.6954   0.05996   0.05396  -0.0941  0.0891  1.0000  -5.4476   0.0000   0.0000   0.0000   0.2779
  15.300   1.6939   0.06122   0.05522  -0.0938  0.0870  1.0000  -5.4842   0.0000   0.0000   0.0000   0.2775
  15.400   1.6941   0.06232   0.05635  -0.0935  0.0846  1.0000  -5.5281   0.0000   0.0000   0.0000   0.2771
  15.500   1.6934   0.06352   0.05756  -0.0932  0.0824  1.0000  -5.5679   0.0000   0.0000   0.0000   0.2767
  15.600   1.6917   0.06485   0.05890  -0.0928  0.0805  1.0000  -5.6031   0.0000   0.0000   0.0000   0.2764
  15.700   1.6918   0.06597   0.06005  -0.0926  0.0783  1.0000  -5.6469   0.0000   0.0000   0.0000   0.2760
  15.800   1.6907   0.06726   0.06136  -0.0923  0.0764  1.0000  -5.6844   0.0000   0.0000   0.0000   0.2756
  15.900   1.6886   0.06868   0.06278  -0.0921  0.0748  1.0000  -5.7175   0.0000   0.0000   0.0000   0.2753
  16.000   1.6888   0.06982   0.06395  -0.0919  0.0728  1.0000  -5.7615   0.0000   0.0000   0.0000   0.2749
  16.100   1.6875   0.07115   0.06531  -0.0917  0.0710  1.0000  -5.7983   0.0000   0.0000   0.0000   0.2746
  16.200   1.6852   0.07262   0.06678  -0.0915  0.0695  1.0000  -5.8300   0.0000   0.0000   0.0000   0.2743
  16.300   1.6848   0.07386   0.06806  -0.0913  0.0678  1.0000  -5.8708   0.0000   0.0000   0.0000   0.2740
  16.400   1.6837   0.07520   0.06942  -0.0912  0.0661  1.0000  -5.9081   0.0000   0.0000   0.0000   0.2737
  16.500   1.6812   0.07671   0.07094  -0.0910  0.0646  1.0000  -5.9388   0.0000   0.0000   0.0000   0.2735
  16.600   1.6796   0.07811   0.07237  -0.0909  0.0632  1.0000  -5.9738   0.0000   0.0000   0.0000   0.2732
  16.700   1.6788   0.07942   0.07372  -0.0908  0.0615  1.0000  -6.0120   0.0000   0.0000   0.0000   0.2729
  16.800   1.6767   0.08089   0.07521  -0.0907  0.0601  1.0000  -6.0445   0.0000   0.0000   0.0000   0.2727
  16.900   1.6735   0.08253   0.07686  -0.0906  0.0588  1.0000  -6.0708   0.0000   0.0000   0.0000   0.2725
  17.000   1.6729   0.08385   0.07822  -0.0906  0.0573  1.0000  -6.1097   0.0000   0.0000   0.0000   0.2723
  17.100   1.6712   0.08532   0.07971  -0.0906  0.0559  1.0000  -6.1432   0.0000   0.0000   0.0000   0.2721
  17.200   1.6684   0.08693   0.08134  -0.0906  0.0547  1.0000  -6.1713   0.0000   0.0000   0.0000   0.2719
  17.300   1.6653   0.08861   0.08304  -0.0906  0.0535  1.0000  -6.1972   0.0000   0.0000   0.0000   0.2718
  17.400   1.6645   0.08997   0.08445  -0.0906  0.0521  1.0000  -6.2348   0.0000   0.0000   0.0000   0.2716
  17.500   1.6624   0.09152   0.08602  -0.0907  0.0507  1.0000  -6.2657   0.0000   0.0000   0.0000   0.2714
  17.600   1.6592   0.09323   0.08775  -0.0908  0.0496  1.0000  -6.2905   0.0000   0.0000   0.0000   0.2713
  17.700   1.6564   0.09491   0.08945  -0.0909  0.0486  1.0000  -6.3168   0.0000   0.0000   0.0000   0.2712
  17.800   1.6548   0.09641   0.09099  -0.0910  0.0473  1.0000  -6.3495   0.0000   0.0000   0.0000   0.2711
  17.900   1.6522   0.09805   0.09267  -0.0911  0.0461  1.0000  -6.3769   0.0000   0.0000   0.0000   0.2710
  18.000   1.6485   0.09985   0.09448  -0.0913  0.0452  1.0000  -6.3982   0.0000   0.0000   0.0000   0.2710
  18.100   1.6446   0.10170   0.09635  -0.0915  0.0443  1.0000  -6.4177   0.0000   0.0000   0.0000   0.2710
  18.200   1.6428   0.10324   0.09794  -0.0917  0.0431  1.0000  -6.4482   0.0000   0.0000   0.0000   0.2709
  18.300   1.6401   0.10492   0.09966  -0.0919  0.0421  1.0000  -6.4734   0.0000   0.0000   0.0000   0.2709
  18.400   1.6364   0.10675   0.10151  -0.0922  0.0412  1.0000  -6.4936   0.0000   0.0000   0.0000   0.2709
  18.500   1.6319   0.10872   0.10350  -0.0925  0.0405  1.0000  -6.5086   0.0000   0.0000   0.0000   0.2710
  18.600   1.6288   0.11051   0.10532  -0.0928  0.0396  1.0000  -6.5301   0.0000   0.0000   0.0000   0.2711
  18.700   1.6267   0.11216   0.10701  -0.0931  0.0387  1.0000  -6.5642   0.0000   0.0000   0.0000   0.2711
  18.800   1.6236   0.11394   0.10883  -0.0935  0.0378  1.0000  -6.5928   0.0000   0.0000   0.0000   0.2712
  18.900   1.6198   0.11584   0.11075  -0.0939  0.0371  1.0000  -6.6166   0.0000   0.0000   0.0000   0.2713
  19.000   1.6153   0.11787   0.11280  -0.0943  0.0365  1.0000  -6.6349   0.0000   0.0000   0.0000   0.2715
  19.100   1.6111   0.11988   0.11483  -0.0948  0.0358  1.0000  -6.6542   0.0000   0.0000   0.0000   0.2717
  19.200   1.6095   0.12147   0.11647  -0.0952  0.0350  1.0000  -6.6905   0.0000   0.0000   0.0000   0.2717
  19.300   1.6070   0.12321   0.11826  -0.0957  0.0342  1.0000  -6.7204   0.0000   0.0000   0.0000   0.2719
  19.400   1.6038   0.12506   0.12014  -0.0962  0.0335  1.0000  -6.7458   0.0000   0.0000   0.0000   0.2720
  19.500   1.6000   0.12702   0.12213  -0.0968  0.0329  1.0000  -6.7666   0.0000   0.0000   0.0000   0.2723
  19.600   1.5956   0.12909   0.12421  -0.0974  0.0324  1.0000  -6.7825   0.0000   0.0000   0.0000   0.2726
  19.700   1.5916   0.13109   0.12624  -0.0980  0.0319  1.0000  -6.8006   0.0000   0.0000   0.0000   0.2729
  19.800   1.5900   0.13271   0.12791  -0.0985  0.0312  1.0000  -6.8344   0.0000   0.0000   0.0000   0.2730
  19.900   1.5877   0.13444   0.12969  -0.0991  0.0306  1.0000  -6.8638   0.0000   0.0000   0.0000   0.2732
  20.000   1.5850   0.13626   0.13153  -0.0997  0.0300  1.0000  -6.8897   0.0000   0.0000   0.0000   0.2734


