xflr5 v6.57

 Calculated polar for: rev_root_140

 1 1 Reynolds number fixed          Mach number fixed         

 xtrf =   1.000 (top)        1.000 (bottom)
 Mach =   0.000     Re =     0.120 e 6     Ncrit =   9.000

  alpha     CL        CD       CDp       Cm    Top Xtr Bot Xtr   Cpmin    Chinge    XCp    
 ------- -------- --------- --------- -------- ------- ------- -------- --------- ---------
 -10.000  -0.1907   0.11806   0.11372  -0.0676  0.9742  0.0876  -1.5060   0.0000   0.0000   0.0000  -0.1405
  -9.900  -0.1958   0.11674   0.11242  -0.0714  0.9719  0.0889  -1.5875   0.0000   0.0000   0.0000  -0.1495
  -9.800  -0.1951   0.11509   0.11078  -0.0736  0.9699  0.0894  -1.6199   0.0000   0.0000   0.0000  -0.1615
  -9.700  -0.1810   0.11334   0.10901  -0.0730  0.9691  0.0901  -1.5494   0.0000   0.0000   0.0000  -0.1901
  -9.600  -0.1708   0.11187   0.10752  -0.0736  0.9681  0.0911  -1.5115   0.0000   0.0000   0.0000  -0.2193
  -9.500  -0.1627   0.11039   0.10604  -0.0749  0.9671  0.0925  -1.4932   0.0000   0.0000   0.0000  -0.2508
  -9.400  -0.1591   0.10912   0.10477  -0.0761  0.9649  0.0940  -1.4954   0.0000   0.0000   0.0000  -0.2694
  -9.300  -0.1625   0.10764   0.10330  -0.0799  0.9627  0.0960  -1.5642   0.0000   0.0000   0.0000  -0.2816
  -9.000  -0.1385   0.10325   0.09890  -0.0820  0.9586  0.0994  -1.4865   0.0000   0.0000   0.0000  -0.3871
  -8.900  -0.1320   0.10178   0.09742  -0.0839  0.9575  0.1017  -1.4823   0.0000   0.0000   0.0000  -0.4332
  -8.800  -0.1394   0.10064   0.09630  -0.0869  0.9537  0.1035  -1.5539   0.0000   0.0000   0.0000  -0.4176
  -8.400  -0.1086   0.09498   0.09062  -0.0904  0.9481  0.1090  -1.4652   0.0000   0.0000   0.0000  -0.6378
  -8.300  -0.1162   0.09380   0.08946  -0.0935  0.9443  0.1112  -1.5341   0.0000   0.0000   0.0000  -0.6055
  -8.000  -0.0883   0.08919   0.08482  -0.0967  0.9412  0.1147  -1.4562   0.0000   0.0000   0.0000  -0.9095
  -7.900  -0.0869   0.08837   0.08401  -0.0968  0.9381  0.1162  -1.4508   0.0000   0.0000   0.0000  -0.9283
  -7.800  -0.0933   0.08683   0.08249  -0.1010  0.9349  0.1192  -1.5228   0.0000   0.0000   0.0000  -0.8925
  -7.700  -0.1152   0.08623   0.08195  -0.1030  0.9279  0.1198  -1.6289   0.0000   0.0000   0.0000  -0.6910
  -6.500  -0.0620   0.07321   0.06892  -0.1082  0.9013  0.1408  -1.4818   0.0000   0.0000   0.0000  -1.5683
  -6.200  -0.1346   0.04900   0.04360  -0.1316  0.8797  0.0823  -2.4966   0.0000   0.0000   0.0000  -0.7630
  -6.100  -0.1211   0.04805   0.04268  -0.1325  0.8788  0.0828  -2.4388   0.0000   0.0000   0.0000  -0.8835
  -6.000  -0.1059   0.04774   0.04244  -0.1333  0.8781  0.0840  -2.3550   0.0000   0.0000   0.0000  -1.0519
  -5.900  -0.1075   0.05091   0.04589  -0.1288  0.8744  0.0914  -2.2104   0.0000   0.0000   0.0000  -0.9890
  -5.800  -0.0980   0.05261   0.04773  -0.1271  0.8726  0.0994  -2.0820   0.0000   0.0000   0.0000  -1.0914
  -5.700  -0.0853   0.05354   0.04869  -0.1275  0.8713  0.1132  -1.9701   0.0000   0.0000   0.0000  -1.2938
  -5.300  -0.0363   0.03470   0.02727  -0.1415  0.8640  0.0766  -2.4957   0.0000   0.0000   0.0000  -3.7666
  -5.200  -0.0209   0.03420   0.02676  -0.1425  0.8629  0.0782  -2.4352   0.0000   0.0000   0.0000  -6.7889
  -5.100  -0.0030   0.03337   0.02573  -0.1439  0.8622  0.0798  -2.3915   0.0000   0.0000   0.0000  -49.5954
  -5.000   0.0162   0.03239   0.02447  -0.1456  0.8616  0.0812  -2.3561   0.0000   0.0000   0.0000   9.4874
  -4.900   0.0341   0.03153   0.02335  -0.1469  0.8608  0.0824  -2.3212   0.0000   0.0000   0.0000   4.6786
  -4.800   0.0277   0.03175   0.02358  -0.1442  0.8558  0.0826  -2.3144   0.0000   0.0000   0.0000   5.5986
  -4.700   0.0430   0.03125   0.02311  -0.1451  0.8548  0.0841  -2.2549   0.0000   0.0000   0.0000   3.7154
  -4.600   0.0603   0.03070   0.02251  -0.1462  0.8539  0.0861  -2.1986   0.0000   0.0000   0.0000   2.7410
  -4.500   0.0791   0.03008   0.02164  -0.1475  0.8533  0.0889  -2.1545   0.0000   0.0000   0.0000   2.1637
  -4.400   0.0963   0.02960   0.02125  -0.1487  0.8527  0.0919  -2.0937   0.0000   0.0000   0.0000   1.8335
  -4.200   0.1064   0.02954   0.02102  -0.1470  0.8463  0.0966  -2.0481   0.0000   0.0000   0.0000   1.6653
  -4.100   0.1228   0.02911   0.02069  -0.1479  0.8454  0.1001  -1.9906   0.0000   0.0000   0.0000   1.4844
  -4.000   0.1403   0.02862   0.02010  -0.1490  0.8447  0.1047  -1.9457   0.0000   0.0000   0.0000   1.3368
  -3.900   0.1573   0.02821   0.01973  -0.1500  0.8440  0.1100  -1.8902   0.0000   0.0000   0.0000   1.2252
  -3.700   0.1683   0.02828   0.01981  -0.1485  0.8376  0.1178  -1.8280   0.0000   0.0000   0.0000   1.1520
  -3.600   0.1845   0.02794   0.01950  -0.1494  0.8366  0.1247  -1.7735   0.0000   0.0000   0.0000   1.0771
  -3.500   0.2011   0.02759   0.01918  -0.1503  0.8358  0.1331  -1.7199   0.0000   0.0000   0.0000   1.0129
  -3.400   0.2182   0.02725   0.01884  -0.1513  0.8351  0.1433  -1.6699   0.0000   0.0000   0.0000   0.9572
  -3.200   0.2299   0.02740   0.01907  -0.1500  0.8285  0.1574  -1.6097   0.0000   0.0000   0.0000   0.9151
  -3.100   0.2459   0.02713   0.01884  -0.1509  0.8275  0.1702  -1.5588   0.0000   0.0000   0.0000   0.8749
  -3.000   0.2625   0.02681   0.01855  -0.1518  0.8267  0.1846  -1.5070   0.0000   0.0000   0.0000   0.8384
  -2.900   0.2794   0.02648   0.01828  -0.1527  0.8260  0.2010  -1.4532   0.0000   0.0000   0.0000   0.8058
  -2.800   0.2764   0.02695   0.01880  -0.1508  0.8205  0.2062  -1.4400   0.0000   0.0000   0.0000   0.8050
  -2.700   0.2914   0.02673   0.01862  -0.1515  0.8192  0.2242  -1.3895   0.0000   0.0000   0.0000   0.7784
  -2.600   0.3071   0.02647   0.01844  -0.1523  0.8182  0.2432  -1.3356   0.0000   0.0000   0.0000   0.7536
  -2.500   0.3234   0.02619   0.01825  -0.1531  0.8174  0.2639  -1.2802   0.0000   0.0000   0.0000   0.7305
  -2.400   0.3396   0.02593   0.01807  -0.1539  0.8166  0.2859  -1.2246   0.0000   0.0000   0.0000   0.7096
  -2.300   0.3368   0.02649   0.01866  -0.1522  0.8109  0.2942  -1.2102   0.0000   0.0000   0.0000   0.7080
  -2.200   0.3514   0.02631   0.01854  -0.1527  0.8097  0.3168  -1.1579   0.0000   0.0000   0.0000   0.6903
  -2.100   0.3669   0.02609   0.01840  -0.1534  0.8087  0.3405  -1.1039   0.0000   0.0000   0.0000   0.6732
  -2.000   0.3829   0.02584   0.01823  -0.1541  0.8079  0.3653  -1.0536   0.0000   0.0000   0.0000   0.6571
  -1.800   0.3954   0.02622   0.01875  -0.1530  0.8011  0.3997  -0.9917   0.0000   0.0000   0.0000   0.6409
  -1.700   0.4099   0.02603   0.01864  -0.1534  0.7999  0.4252  -0.9448   0.0000   0.0000   0.0000   0.6280
  -1.600   0.4250   0.02580   0.01850  -0.1539  0.7990  0.4521  -0.8971   0.0000   0.0000   0.0000   0.6154
  -1.500   0.4403   0.02556   0.01833  -0.1543  0.7983  0.4813  -0.8490   0.0000   0.0000   0.0000   0.6035
  -1.300   0.4514   0.02599   0.01895  -0.1529  0.7911  0.5243  -0.7910   0.0000   0.0000   0.0000   0.5911
  -1.200   0.4654   0.02579   0.01885  -0.1530  0.7900  0.5566  -0.7745   0.0000   0.0000   0.0000   0.5811
  -1.100   0.4795   0.02555   0.01872  -0.1531  0.7892  0.5899  -0.7853   0.0000   0.0000   0.0000   0.5713
  -1.000   0.4937   0.02530   0.01857  -0.1532  0.7884  0.6247  -0.7963   0.0000   0.0000   0.0000   0.5619
  -0.900   0.4902   0.02597   0.01933  -0.1513  0.7822  0.6418  -0.7940   0.0000   0.0000   0.0000   0.5601
  -0.800   0.5021   0.02581   0.01926  -0.1509  0.7808  0.6748  -0.8035   0.0000   0.0000   0.0000   0.5518
  -0.700   0.5141   0.02561   0.01912  -0.1504  0.7798  0.7067  -0.8133   0.0000   0.0000   0.0000   0.5436
  -0.600   0.5263   0.02539   0.01895  -0.1499  0.7790  0.7392  -0.8233   0.0000   0.0000   0.0000   0.5356
  -0.400   0.5318   0.02591   0.01958  -0.1468  0.7714  0.7873  -0.8291   0.0000   0.0000   0.0000   0.5265
  -0.300   0.5411   0.02570   0.01940  -0.1458  0.7702  0.8160  -0.8376   0.0000   0.0000   0.0000   0.5195
  -0.200   0.5498   0.02545   0.01917  -0.1445  0.7694  0.8447  -0.8459   0.0000   0.0000   0.0000   0.5127
   0.000   0.5482   0.02590   0.01972  -0.1400  0.7615  0.9016  -0.8477   0.0000   0.0000   0.0000   0.5050
   0.100   0.5611   0.02553   0.01936  -0.1396  0.7604  0.9709  -0.8582   0.0000   0.0000   0.0000   0.4982
   0.200   0.5801   0.02532   0.01905  -0.1409  0.7596  1.0000  -0.8720   0.0000   0.0000   0.0000   0.4921
   0.300   0.5983   0.02514   0.01878  -0.1420  0.7590  1.0000  -0.8856   0.0000   0.0000   0.0000   0.4863
   0.500   0.6134   0.02587   0.01942  -0.1418  0.7510  1.0000  -0.8962   0.0000   0.0000   0.0000   0.4799
   0.600   0.6304   0.02568   0.01917  -0.1427  0.7502  1.0000  -0.9092   0.0000   0.0000   0.0000   0.4747
   0.700   0.6474   0.02549   0.01890  -0.1434  0.7494  1.0000  -0.9230   0.0000   0.0000   0.0000   0.4698
   0.900   0.6615   0.02620   0.01955  -0.1429  0.7417  1.0000  -0.9361   0.0000   0.0000   0.0000   0.4639
   1.000   0.6777   0.02602   0.01931  -0.1435  0.7407  1.0000  -0.9502   0.0000   0.0000   0.0000   0.4595
   1.100   0.6941   0.02581   0.01904  -0.1441  0.7398  1.0000  -0.9645   0.0000   0.0000   0.0000   0.4552
   1.200   0.7109   0.02558   0.01876  -0.1448  0.7391  1.0000  -0.9791   0.0000   0.0000   0.0000   0.4511
   1.400   0.7244   0.02625   0.01939  -0.1440  0.7311  1.0000  -0.9922   0.0000   0.0000   0.0000   0.4458
   1.500   0.7405   0.02602   0.01911  -0.1445  0.7301  1.0000  -1.0067   0.0000   0.0000   0.0000   0.4421
   1.600   0.7571   0.02576   0.01880  -0.1451  0.7293  1.0000  -1.0218   0.0000   0.0000   0.0000   0.4384
   1.700   0.7740   0.02548   0.01847  -0.1457  0.7286  1.0000  -1.0372   0.0000   0.0000   0.0000   0.4348
   1.900   0.7868   0.02616   0.01912  -0.1447  0.7204  1.0000  -1.0504   0.0000   0.0000   0.0000   0.4302
   2.000   0.8030   0.02590   0.01882  -0.1452  0.7195  1.0000  -1.0654   0.0000   0.0000   0.0000   0.4270
   2.100   0.8197   0.02561   0.01849  -0.1458  0.7188  1.0000  -1.0811   0.0000   0.0000   0.0000   0.4239
   2.300   0.8326   0.02628   0.01915  -0.1448  0.7107  1.0000  -1.0958   0.0000   0.0000   0.0000   0.4196
   2.400   0.8484   0.02603   0.01887  -0.1452  0.7097  1.0000  -1.1117   0.0000   0.0000   0.0000   0.4167
   2.500   0.8648   0.02575   0.01855  -0.1457  0.7089  1.0000  -1.1288   0.0000   0.0000   0.0000   0.4140
   2.600   0.8815   0.02545   0.01822  -0.1463  0.7082  1.0000  -1.1463   0.0000   0.0000   0.0000   0.4113
   2.800   0.8935   0.02614   0.01891  -0.1451  0.6999  1.0000  -1.1630   0.0000   0.0000   0.0000   0.4074
   2.900   0.9097   0.02585   0.01859  -0.1456  0.6989  1.0000  -1.1806   0.0000   0.0000   0.0000   0.4049
   3.000   0.9265   0.02553   0.01824  -0.1462  0.6981  1.0000  -1.1988   0.0000   0.0000   0.0000   0.4025
   3.200   0.9396   0.02610   0.01882  -0.1450  0.6900  1.0000  -1.2167   0.0000   0.0000   0.0000   0.3988
   3.300   0.9560   0.02577   0.01846  -0.1455  0.6889  1.0000  -1.2348   0.0000   0.0000   0.0000   0.3965
   3.400   0.9729   0.02540   0.01807  -0.1461  0.6879  1.0000  -1.2534   0.0000   0.0000   0.0000   0.3943
   3.500   0.9901   0.02503   0.01767  -0.1466  0.6870  1.0000  -1.2722   0.0000   0.0000   0.0000   0.3921
   3.600   0.9872   0.02585   0.01853  -0.1450  0.6800  1.0000  -1.2728   0.0000   0.0000   0.0000   0.3907
   3.700   1.0035   0.02551   0.01817  -0.1455  0.6787  1.0000  -1.2909   0.0000   0.0000   0.0000   0.3886
   3.800   1.0202   0.02515   0.01779  -0.1460  0.6776  1.0000  -1.3097   0.0000   0.0000   0.0000   0.3866
   3.900   1.0374   0.02478   0.01739  -0.1466  0.6766  1.0000  -1.3292   0.0000   0.0000   0.0000   0.3847
   4.000   1.0352   0.02555   0.01820  -0.1450  0.6698  1.0000  -1.3306   0.0000   0.0000   0.0000   0.3833
   4.100   1.0507   0.02526   0.01789  -0.1454  0.6683  1.0000  -1.3487   0.0000   0.0000   0.0000   0.3815
   4.200   1.0673   0.02492   0.01753  -0.1459  0.6671  1.0000  -1.3690   0.0000   0.0000   0.0000   0.3797
   4.300   1.0845   0.02455   0.01714  -0.1465  0.6661  1.0000  -1.3903   0.0000   0.0000   0.0000   0.3779
   4.500   1.0979   0.02501   0.01764  -0.1453  0.6578  1.0000  -1.4125   0.0000   0.0000   0.0000   0.3749
   4.600   1.1146   0.02466   0.01727  -0.1458  0.6565  1.0000  -1.4340   0.0000   0.0000   0.0000   0.3732
   4.800   1.1304   0.02495   0.01759  -0.1449  0.6488  1.0000  -1.4597   0.0000   0.0000   0.0000   0.3703
   4.900   1.1462   0.02464   0.01726  -0.1453  0.6470  1.0000  -1.4806   0.0000   0.0000   0.0000   0.3687
   5.000   1.1634   0.02425   0.01684  -0.1459  0.6456  1.0000  -1.5037   0.0000   0.0000   0.0000   0.3672
   5.100   1.1662   0.02467   0.01731  -0.1448  0.6403  1.0000  -1.5123   0.0000   0.0000   0.0000   0.3658
   5.200   1.1792   0.02450   0.01714  -0.1449  0.6376  1.0000  -1.5317   0.0000   0.0000   0.0000   0.3644
   5.300   1.1957   0.02414   0.01677  -0.1454  0.6357  1.0000  -1.5547   0.0000   0.0000   0.0000   0.3630
   5.400   1.2136   0.02373   0.01632  -0.1461  0.6342  1.0000  -1.5792   0.0000   0.0000   0.0000   0.3616
   5.500   1.2136   0.02427   0.01692  -0.1446  0.6280  1.0000  -1.5855   0.0000   0.0000   0.0000   0.3602
   5.600   1.2287   0.02399   0.01663  -0.1450  0.6257  1.0000  -1.6093   0.0000   0.0000   0.0000   0.3589
   5.700   1.2461   0.02362   0.01622  -0.1456  0.6239  1.0000  -1.6364   0.0000   0.0000   0.0000   0.3576
   5.800   1.2484   0.02403   0.01669  -0.1444  0.6184  1.0000  -1.6465   0.0000   0.0000   0.0000   0.3563
   5.900   1.2620   0.02385   0.01651  -0.1446  0.6155  1.0000  -1.6702   0.0000   0.0000   0.0000   0.3550
   6.000   1.2788   0.02351   0.01615  -0.1452  0.6134  1.0000  -1.6977   0.0000   0.0000   0.0000   0.3538
   6.100   1.2833   0.02381   0.01649  -0.1442  0.6085  1.0000  -1.7110   0.0000   0.0000   0.0000   0.3525
   6.200   1.2953   0.02372   0.01640  -0.1442  0.6051  1.0000  -1.7331   0.0000   0.0000   0.0000   0.3513
   6.300   1.3117   0.02343   0.01607  -0.1448  0.6028  1.0000  -1.7604   0.0000   0.0000   0.0000   0.3502
   6.400   1.3171   0.02368   0.01637  -0.1439  0.5979  1.0000  -1.7758   0.0000   0.0000   0.0000   0.3490
   6.500   1.3286   0.02361   0.01631  -0.1439  0.5942  1.0000  -1.8007   0.0000   0.0000   0.0000   0.3478
   6.600   1.3453   0.02331   0.01598  -0.1445  0.5917  1.0000  -1.8335   0.0000   0.0000   0.0000   0.3468
   6.700   1.3495   0.02360   0.01631  -0.1434  0.5864  1.0000  -1.8506   0.0000   0.0000   0.0000   0.3455
   6.800   1.3623   0.02346   0.01617  -0.1435  0.5827  1.0000  -1.8797   0.0000   0.0000   0.0000   0.3444
   6.900   1.3779   0.02322   0.01589  -0.1440  0.5796  1.0000  -1.9127   0.0000   0.0000   0.0000   0.3434
   7.000   1.3815   0.02351   0.01624  -0.1429  0.5739  1.0000  -1.9293   0.0000   0.0000   0.0000   0.3422
   7.100   1.3965   0.02329   0.01598  -0.1433  0.5705  1.0000  -1.9619   0.0000   0.0000   0.0000   0.3412
   7.200   1.4031   0.02346   0.01619  -0.1425  0.5655  1.0000  -1.9826   0.0000   0.0000   0.0000   0.3400
   7.300   1.4141   0.02343   0.01615  -0.1424  0.5611  1.0000  -2.0097   0.0000   0.0000   0.0000   0.3389
   7.400   1.4277   0.02332   0.01602  -0.1426  0.5573  1.0000  -2.0407   0.0000   0.0000   0.0000   0.3380
   7.500   1.4326   0.02355   0.01630  -0.1416  0.5518  1.0000  -2.0593   0.0000   0.0000   0.0000   0.3368
   7.600   1.4474   0.02339   0.01610  -0.1420  0.5481  1.0000  -2.0921   0.0000   0.0000   0.0000   0.3359
   7.700   1.4520   0.02365   0.01640  -0.1410  0.5426  1.0000  -2.1125   0.0000   0.0000   0.0000   0.3347
   7.800   1.4641   0.02360   0.01633  -0.1411  0.5382  1.0000  -2.1495   0.0000   0.0000   0.0000   0.3338
   7.900   1.4718   0.02373   0.01648  -0.1405  0.5331  1.0000  -2.1792   0.0000   0.0000   0.0000   0.3327
   8.000   1.4810   0.02379   0.01654  -0.1401  0.5281  1.0000  -2.2118   0.0000   0.0000   0.0000   0.3317
   8.200   1.4981   0.02398   0.01675  -0.1392  0.5177  1.0000  -2.2749   0.0000   0.0000   0.0000   0.3296
   8.300   1.5093   0.02399   0.01673  -0.1391  0.5129  1.0000  -2.3116   0.0000   0.0000   0.0000   0.3287
   8.400   1.5147   0.02420   0.01697  -0.1382  0.5072  1.0000  -2.3379   0.0000   0.0000   0.0000   0.3276
   8.500   1.5265   0.02420   0.01693  -0.1382  0.5024  1.0000  -2.3758   0.0000   0.0000   0.0000   0.3267
   8.600   1.5307   0.02446   0.01723  -0.1371  0.4965  1.0000  -2.4001   0.0000   0.0000   0.0000   0.3256
   8.700   1.5423   0.02448   0.01720  -0.1371  0.4916  1.0000  -2.4382   0.0000   0.0000   0.0000   0.3248
   8.800   1.5459   0.02475   0.01753  -0.1359  0.4857  1.0000  -2.4616   0.0000   0.0000   0.0000   0.3236
   8.900   1.5575   0.02479   0.01751  -0.1359  0.4807  1.0000  -2.4998   0.0000   0.0000   0.0000   0.3228
   9.000   1.5602   0.02509   0.01788  -0.1346  0.4748  1.0000  -2.5220   0.0000   0.0000   0.0000   0.3217
   9.100   1.5709   0.02516   0.01790  -0.1345  0.4696  1.0000  -2.5617   0.0000   0.0000   0.0000   0.3208
   9.200   1.5736   0.02546   0.01825  -0.1332  0.4637  1.0000  -2.5906   0.0000   0.0000   0.0000   0.3197
   9.300   1.5831   0.02557   0.01831  -0.1329  0.4584  1.0000  -2.6362   0.0000   0.0000   0.0000   0.3188
   9.400   1.5859   0.02586   0.01865  -0.1316  0.4525  1.0000  -2.6693   0.0000   0.0000   0.0000   0.3177
   9.500   1.5940   0.02601   0.01877  -0.1311  0.4471  1.0000  -2.7160   0.0000   0.0000   0.0000   0.3168
   9.600   1.5970   0.02629   0.01908  -0.1299  0.4413  1.0000  -2.7501   0.0000   0.0000   0.0000   0.3157
   9.700   1.6037   0.02648   0.01924  -0.1292  0.4359  1.0000  -2.7952   0.0000   0.0000   0.0000   0.3147
   9.800   1.6063   0.02677   0.01955  -0.1279  0.4303  1.0000  -2.8304   0.0000   0.0000   0.0000   0.3136
   9.900   1.6121   0.02699   0.01977  -0.1271  0.4249  1.0000  -2.8747   0.0000   0.0000   0.0000   0.3126
  10.000   1.6148   0.02731   0.02010  -0.1259  0.4193  1.0000  -2.9104   0.0000   0.0000   0.0000   0.3116
  10.100   1.6200   0.02757   0.02034  -0.1250  0.4140  1.0000  -2.9532   0.0000   0.0000   0.0000   0.3106
  10.200   1.6224   0.02790   0.02069  -0.1238  0.4084  1.0000  -2.9887   0.0000   0.0000   0.0000   0.3095
  10.300   1.6270   0.02819   0.02097  -0.1228  0.4032  1.0000  -3.0354   0.0000   0.0000   0.0000   0.3086
  10.400   1.6293   0.02855   0.02135  -0.1216  0.3977  1.0000  -3.0806   0.0000   0.0000   0.0000   0.3075
  10.500   1.6337   0.02886   0.02165  -0.1207  0.3925  1.0000  -3.1333   0.0000   0.0000   0.0000   0.3066
  10.600   1.6355   0.02925   0.02206  -0.1195  0.3871  1.0000  -3.1773   0.0000   0.0000   0.0000   0.3056
  10.700   1.6398   0.02958   0.02238  -0.1186  0.3820  1.0000  -3.2302   0.0000   0.0000   0.0000   0.3046
  10.800   1.6413   0.03000   0.02282  -0.1174  0.3766  1.0000  -3.2734   0.0000   0.0000   0.0000   0.3036
  10.900   1.6454   0.03036   0.02315  -0.1165  0.3715  1.0000  -3.3262   0.0000   0.0000   0.0000   0.3027
  11.000   1.6463   0.03082   0.02365  -0.1152  0.3661  1.0000  -3.3675   0.0000   0.0000   0.0000   0.3017
  11.100   1.6497   0.03121   0.02403  -0.1143  0.3609  1.0000  -3.4185   0.0000   0.0000   0.0000   0.3008
  11.200   1.6501   0.03172   0.02456  -0.1130  0.3555  1.0000  -3.4582   0.0000   0.0000   0.0000   0.2999
  11.300   1.6529   0.03214   0.02497  -0.1121  0.3504  1.0000  -3.5075   0.0000   0.0000   0.0000   0.2990
  11.400   1.6531   0.03268   0.02553  -0.1108  0.3450  1.0000  -3.5469   0.0000   0.0000   0.0000   0.2980
  11.500   1.6555   0.03314   0.02598  -0.1099  0.3399  1.0000  -3.5949   0.0000   0.0000   0.0000   0.2971
  11.600   1.6554   0.03371   0.02658  -0.1087  0.3346  1.0000  -3.6336   0.0000   0.0000   0.0000   0.2962
  11.700   1.6573   0.03421   0.02707  -0.1077  0.3295  1.0000  -3.6801   0.0000   0.0000   0.0000   0.2954
  11.800   1.6573   0.03481   0.02769  -0.1065  0.3243  1.0000  -3.7194   0.0000   0.0000   0.0000   0.2945
  11.900   1.6591   0.03534   0.02821  -0.1056  0.3193  1.0000  -3.7656   0.0000   0.0000   0.0000   0.2936
  12.000   1.6590   0.03598   0.02887  -0.1045  0.3141  1.0000  -3.8046   0.0000   0.0000   0.0000   0.2928
  12.100   1.6605   0.03655   0.02942  -0.1036  0.3092  1.0000  -3.8501   0.0000   0.0000   0.0000   0.2920
  12.200   1.6602   0.03722   0.03012  -0.1025  0.3041  1.0000  -3.8883   0.0000   0.0000   0.0000   0.2911
  12.300   1.6616   0.03782   0.03071  -0.1016  0.2992  1.0000  -3.9337   0.0000   0.0000   0.0000   0.2903
  12.400   1.6610   0.03854   0.03147  -0.1006  0.2941  1.0000  -3.9709   0.0000   0.0000   0.0000   0.2895
  12.500   1.6623   0.03916   0.03208  -0.0997  0.2894  1.0000  -4.0158   0.0000   0.0000   0.0000   0.2888
  12.600   1.6613   0.03993   0.03288  -0.0987  0.2843  1.0000  -4.0517   0.0000   0.0000   0.0000   0.2880
  12.700   1.6624   0.04058   0.03352  -0.0979  0.2797  1.0000  -4.0961   0.0000   0.0000   0.0000   0.2872
  12.800   1.6611   0.04140   0.03437  -0.0969  0.2747  1.0000  -4.1308   0.0000   0.0000   0.0000   0.2865
  12.900   1.6623   0.04206   0.03501  -0.0961  0.2701  1.0000  -4.1756   0.0000   0.0000   0.0000   0.2857
  13.000   1.6608   0.04292   0.03591  -0.0951  0.2652  1.0000  -4.2094   0.0000   0.0000   0.0000   0.2850
  13.100   1.6620   0.04360   0.03655  -0.0944  0.2607  1.0000  -4.2550   0.0000   0.0000   0.0000   0.2843
  13.200   1.6601   0.04452   0.03752  -0.0934  0.2559  1.0000  -4.2870   0.0000   0.0000   0.0000   0.2836
  13.300   1.6613   0.04522   0.03818  -0.0927  0.2514  1.0000  -4.3325   0.0000   0.0000   0.0000   0.2829
  13.400   1.6589   0.04620   0.03922  -0.0918  0.2466  1.0000  -4.3621   0.0000   0.0000   0.0000   0.2822
  13.500   1.6599   0.04692   0.03989  -0.0911  0.2422  1.0000  -4.4073   0.0000   0.0000   0.0000   0.2815
  13.600   1.6569   0.04797   0.04101  -0.0902  0.2374  1.0000  -4.4347   0.0000   0.0000   0.0000   0.2809
  13.700   1.6579   0.04870   0.04169  -0.0895  0.2331  1.0000  -4.4799   0.0000   0.0000   0.0000   0.2802
  13.800   1.6545   0.04983   0.04289  -0.0887  0.2285  1.0000  -4.5050   0.0000   0.0000   0.0000   0.2796
  13.900   1.6553   0.05059   0.04359  -0.0880  0.2242  1.0000  -4.5500   0.0000   0.0000   0.0000   0.2789
  14.000   1.6515   0.05178   0.04488  -0.0872  0.2197  1.0000  -4.5731   0.0000   0.0000   0.0000   0.2784
  14.100   1.6524   0.05255   0.04556  -0.0866  0.2155  1.0000  -4.6187   0.0000   0.0000   0.0000   0.2777
  14.200   1.6482   0.05382   0.04694  -0.0859  0.2110  1.0000  -4.6398   0.0000   0.0000   0.0000   0.2772
  14.300   1.6486   0.05465   0.04770  -0.0853  0.2070  1.0000  -4.6830   0.0000   0.0000   0.0000   0.2766
  14.400   1.6447   0.05595   0.04908  -0.0846  0.2026  1.0000  -4.7052   0.0000   0.0000   0.0000   0.2761
  14.500   1.6444   0.05686   0.04995  -0.0841  0.1986  1.0000  -4.7454   0.0000   0.0000   0.0000   0.2755
  14.600   1.6412   0.05814   0.05129  -0.0835  0.1945  1.0000  -4.7704   0.0000   0.0000   0.0000   0.2751
  14.700   1.6404   0.05915   0.05227  -0.0830  0.1905  1.0000  -4.8077   0.0000   0.0000   0.0000   0.2745
  14.800   1.6378   0.06040   0.05355  -0.0825  0.1865  1.0000  -4.8357   0.0000   0.0000   0.0000   0.2741
  14.900   1.6364   0.06151   0.05466  -0.0820  0.1826  1.0000  -4.8696   0.0000   0.0000   0.0000   0.2736
  15.000   1.6346   0.06270   0.05586  -0.0815  0.1789  1.0000  -4.9011   0.0000   0.0000   0.0000   0.2731
  15.100   1.6323   0.06395   0.05714  -0.0811  0.1750  1.0000  -4.9304   0.0000   0.0000   0.0000   0.2727
  15.200   1.6315   0.06503   0.05821  -0.0807  0.1715  1.0000  -4.9668   0.0000   0.0000   0.0000   0.2723
  15.300   1.6283   0.06643   0.05966  -0.0803  0.1678  1.0000  -4.9911   0.0000   0.0000   0.0000   0.2719
  15.400   1.6288   0.06735   0.06051  -0.0799  0.1644  1.0000  -5.0344   0.0000   0.0000   0.0000   0.2714
  15.500   1.6245   0.06893   0.06219  -0.0796  0.1608  1.0000  -5.0524   0.0000   0.0000   0.0000   0.2711
  15.600   1.6240   0.07000   0.06323  -0.0792  0.1575  1.0000  -5.0905   0.0000   0.0000   0.0000   0.2707
  15.700   1.6213   0.07141   0.06469  -0.0789  0.1542  1.0000  -5.1158   0.0000   0.0000   0.0000   0.2703
  15.800   1.6195   0.07270   0.06599  -0.0787  0.1509  1.0000  -5.1465   0.0000   0.0000   0.0000   0.2700
  15.900   1.6188   0.07383   0.06710  -0.0784  0.1477  1.0000  -5.1831   0.0000   0.0000   0.0000   0.2696
  16.000   1.6156   0.07536   0.06869  -0.0782  0.1445  1.0000  -5.2052   0.0000   0.0000   0.0000   0.2693
  16.100   1.6166   0.07625   0.06950  -0.0778  0.1415  1.0000  -5.2511   0.0000   0.0000   0.0000   0.2689
  16.200   1.6123   0.07796   0.07131  -0.0777  0.1384  1.0000  -5.2667   0.0000   0.0000   0.0000   0.2687
  16.300   1.6110   0.07923   0.07258  -0.0775  0.1354  1.0000  -5.2991   0.0000   0.0000   0.0000   0.2684
  16.400   1.6100   0.08046   0.07380  -0.0773  0.1326  1.0000  -5.3328   0.0000   0.0000   0.0000   0.2680
  16.500   1.6065   0.08208   0.07549  -0.0773  0.1297  1.0000  -5.3526   0.0000   0.0000   0.0000   0.2679
  16.600   1.6075   0.08300   0.07633  -0.0770  0.1269  1.0000  -5.3979   0.0000   0.0000   0.0000   0.2674
  16.700   1.6034   0.08475   0.07817  -0.0770  0.1242  1.0000  -5.4128   0.0000   0.0000   0.0000   0.2673
  16.800   1.6014   0.08616   0.07961  -0.0770  0.1215  1.0000  -5.4402   0.0000   0.0000   0.0000   0.2671
  16.900   1.6022   0.08712   0.08050  -0.0767  0.1189  1.0000  -5.4839   0.0000   0.0000   0.0000   0.2667
  17.000   1.5975   0.08900   0.08249  -0.0769  0.1164  1.0000  -5.4945   0.0000   0.0000   0.0000   0.2667
  17.100   1.5968   0.09022   0.08370  -0.0768  0.1138  1.0000  -5.5290   0.0000   0.0000   0.0000   0.2664
  17.200   1.5961   0.09146   0.08493  -0.0767  0.1114  1.0000  -5.5622   0.0000   0.0000   0.0000   0.2661
  17.300   1.5922   0.09325   0.08681  -0.0768  0.1090  1.0000  -5.5765   0.0000   0.0000   0.0000   0.2661
  17.400   1.5930   0.09424   0.08775  -0.0767  0.1066  1.0000  -5.6193   0.0000   0.0000   0.0000   0.2657
  17.500   1.5909   0.09575   0.08930  -0.0768  0.1043  1.0000  -5.6427   0.0000   0.0000   0.0000   0.2656
  17.600   1.5874   0.09749   0.09112  -0.0770  0.1021  1.0000  -5.6584   0.0000   0.0000   0.0000   0.2656
  17.700   1.5895   0.09827   0.09181  -0.0768  0.0998  1.0000  -5.7080   0.0000   0.0000   0.0000   0.2652
  17.800   1.5865   0.09997   0.09358  -0.0770  0.0977  1.0000  -5.7243   0.0000   0.0000   0.0000   0.2651
  17.900   1.5830   0.10174   0.09543  -0.0772  0.0957  1.0000  -5.7385   0.0000   0.0000   0.0000   0.2651
  18.000   1.5853   0.10249   0.09610  -0.0771  0.0934  1.0000  -5.7889   0.0000   0.0000   0.0000   0.2647
  18.100   1.5824   0.10418   0.09785  -0.0773  0.0915  1.0000  -5.8050   0.0000   0.0000   0.0000   0.2647
  18.200   1.5785   0.10605   0.09981  -0.0777  0.0896  1.0000  -5.8153   0.0000   0.0000   0.0000   0.2648
  18.300   1.5798   0.10699   0.10070  -0.0777  0.0876  1.0000  -5.8584   0.0000   0.0000   0.0000   0.2645
  18.400   1.5794   0.10825   0.10197  -0.0778  0.0857  1.0000  -5.8966   0.0000   0.0000   0.0000   0.2643
  18.500   1.5747   0.11029   0.10411  -0.0783  0.0841  1.0000  -5.9060   0.0000   0.0000   0.0000   0.2645
  18.600   1.5741   0.11158   0.10542  -0.0785  0.0823  1.0000  -5.9444   0.0000   0.0000   0.0000   0.2644
  18.700   1.5784   0.11200   0.10574  -0.0782  0.0802  1.0000  -6.0162   0.0000   0.0000   0.0000   0.2639
  18.800   1.5724   0.11432   0.10820  -0.0789  0.0789  1.0000  -6.0137   0.0000   0.0000   0.0000   0.2642
  18.900   1.5697   0.11603   0.10997  -0.0793  0.0773  1.0000  -6.0357   0.0000   0.0000   0.0000   0.2644
  19.000   1.5741   0.11642   0.11026  -0.0791  0.0754  1.0000  -6.1103   0.0000   0.0000   0.0000   0.2638
  19.100   1.5719   0.11806   0.11196  -0.0795  0.0740  1.0000  -6.1337   0.0000   0.0000   0.0000   0.2639
  19.200   1.5667   0.12026   0.11429  -0.0802  0.0727  1.0000  -6.1355   0.0000   0.0000   0.0000   0.2643
  19.300   1.5650   0.12183   0.11589  -0.0807  0.0713  1.0000  -6.1636   0.0000   0.0000   0.0000   0.2644
  19.400   1.5750   0.12119   0.11506  -0.0799  0.0692  1.0000  -6.2778   0.0000   0.0000   0.0000   0.2633
  19.500   1.5674   0.12387   0.11791  -0.0810  0.0684  1.0000  -6.2598   0.0000   0.0000   0.0000   0.2640
  19.600   1.5622   0.12612   0.12027  -0.0818  0.0673  1.0000  -6.2592   0.0000   0.0000   0.0000   0.2644
  19.700   1.5603   0.12775   0.12195  -0.0824  0.0661  1.0000  -6.2834   0.0000   0.0000   0.0000   0.2646
  19.800   1.5663   0.12785   0.12197  -0.0821  0.0645  1.0000  -6.3685   0.0000   0.0000   0.0000   0.2639
  19.900   1.5665   0.12910   0.12323  -0.0824  0.0633  1.0000  -6.4057   0.0000   0.0000   0.0000   0.2638
  20.000   1.5599   0.13167   0.12594  -0.0835  0.0625  1.0000  -6.3918   0.0000   0.0000   0.0000   0.2645


