xflr5 v6.57

 Calculated polar for: rev_root_140

 1 1 Reynolds number fixed          Mach number fixed         

 xtrf =   1.000 (top)        1.000 (bottom)
 Mach =   0.000     Re =     0.940 e 6     Ncrit =   9.000

  alpha     CL        CD       CDp       Cm    Top Xtr Bot Xtr   Cpmin    Chinge    XCp    
 ------- -------- --------- --------- -------- ------- ------- -------- --------- ---------
 -10.000  -0.4129   0.01848   0.01374  -0.1476  0.8059  0.0181  -6.6274   0.0000   0.0000   0.0000  -0.1300
  -9.900  -0.4025   0.01819   0.01341  -0.1478  0.8042  0.0182  -6.5241   0.0000   0.0000   0.0000  -0.1400
  -9.800  -0.3919   0.01792   0.01311  -0.1480  0.8025  0.0184  -6.4204   0.0000   0.0000   0.0000  -0.1506
  -9.700  -0.3813   0.01767   0.01281  -0.1482  0.8010  0.0186  -6.3169   0.0000   0.0000   0.0000  -0.1618
  -9.600  -0.3707   0.01742   0.01251  -0.1484  0.7995  0.0188  -6.2141   0.0000   0.0000   0.0000  -0.1736
  -9.500  -0.3600   0.01719   0.01222  -0.1485  0.7982  0.0190  -6.1121   0.0000   0.0000   0.0000  -0.1862
  -9.400  -0.3493   0.01694   0.01194  -0.1487  0.7967  0.0192  -6.0106   0.0000   0.0000   0.0000  -0.1998
  -9.300  -0.3384   0.01671   0.01166  -0.1488  0.7951  0.0193  -5.9097   0.0000   0.0000   0.0000  -0.2142
  -9.200  -0.3276   0.01647   0.01138  -0.1490  0.7936  0.0195  -5.8096   0.0000   0.0000   0.0000  -0.2297
  -9.100  -0.3167   0.01625   0.01111  -0.1491  0.7921  0.0196  -5.7099   0.0000   0.0000   0.0000  -0.2462
  -9.000  -0.3057   0.01606   0.01087  -0.1493  0.7907  0.0197  -5.6096   0.0000   0.0000   0.0000  -0.2640
  -8.900  -0.2947   0.01589   0.01065  -0.1494  0.7894  0.0198  -5.5086   0.0000   0.0000   0.0000  -0.2832
  -8.800  -0.2849   0.01527   0.00996  -0.1496  0.7881  0.0200  -5.4324   0.0000   0.0000   0.0000  -0.3020
  -8.700  -0.2747   0.01476   0.00941  -0.1498  0.7866  0.0203  -5.3481   0.0000   0.0000   0.0000  -0.3229
  -8.600  -0.2639   0.01444   0.00907  -0.1500  0.7851  0.0205  -5.2536   0.0000   0.0000   0.0000  -0.3464
  -8.500  -0.2530   0.01420   0.00881  -0.1502  0.7836  0.0207  -5.1556   0.0000   0.0000   0.0000  -0.3723
  -8.400  -0.2420   0.01399   0.00859  -0.1503  0.7822  0.0209  -5.0566   0.0000   0.0000   0.0000  -0.4007
  -8.300  -0.2309   0.01381   0.00838  -0.1504  0.7809  0.0210  -4.9638   0.0000   0.0000   0.0000  -0.4320
  -8.200  -0.2197   0.01364   0.00819  -0.1506  0.7797  0.0212  -4.8723   0.0000   0.0000   0.0000  -0.4666
  -8.100  -0.2086   0.01348   0.00799  -0.1507  0.7786  0.0214  -4.7814   0.0000   0.0000   0.0000  -0.5051
  -8.000  -0.1973   0.01330   0.00780  -0.1508  0.7773  0.0216  -4.6914   0.0000   0.0000   0.0000  -0.5482
  -7.900  -0.1861   0.01313   0.00761  -0.1509  0.7759  0.0219  -4.6023   0.0000   0.0000   0.0000  -0.5965
  -7.800  -0.1748   0.01296   0.00742  -0.1511  0.7744  0.0221  -4.5140   0.0000   0.0000   0.0000  -0.6510
  -7.700  -0.1636   0.01280   0.00723  -0.1512  0.7730  0.0223  -4.4265   0.0000   0.0000   0.0000  -0.7130
  -7.600  -0.1523   0.01264   0.00704  -0.1513  0.7716  0.0225  -4.3438   0.0000   0.0000   0.0000  -0.7843
  -7.500  -0.1410   0.01249   0.00686  -0.1514  0.7703  0.0227  -4.2650   0.0000   0.0000   0.0000  -0.8670
  -7.400  -0.1297   0.01236   0.00669  -0.1515  0.7691  0.0229  -4.1859   0.0000   0.0000   0.0000  -0.9646
  -7.300  -0.1183   0.01224   0.00654  -0.1516  0.7677  0.0231  -4.1062   0.0000   0.0000   0.0000  -1.0815
  -7.200  -0.1069   0.01213   0.00641  -0.1517  0.7662  0.0233  -4.0260   0.0000   0.0000   0.0000  -1.2240
  -7.100  -0.0956   0.01194   0.00620  -0.1518  0.7648  0.0235  -3.9506   0.0000   0.0000   0.0000  -1.3986
  -7.000  -0.0845   0.01163   0.00587  -0.1520  0.7634  0.0239  -3.8811   0.0000   0.0000   0.0000  -1.6157
  -6.900  -0.0732   0.01144   0.00567  -0.1521  0.7621  0.0243  -3.8045   0.0000   0.0000   0.0000  -1.9045
  -6.800  -0.0618   0.01131   0.00552  -0.1523  0.7609  0.0246  -3.7262   0.0000   0.0000   0.0000  -2.3023
  -6.700  -0.0504   0.01119   0.00538  -0.1524  0.7597  0.0249  -3.6482   0.0000   0.0000   0.0000  -2.8823
  -6.600  -0.0389   0.01108   0.00525  -0.1525  0.7585  0.0251  -3.5708   0.0000   0.0000   0.0000  -3.8070
  -6.500  -0.0274   0.01096   0.00512  -0.1526  0.7571  0.0254  -3.4942   0.0000   0.0000   0.0000  -5.5090
  -6.400  -0.0159   0.01085   0.00500  -0.1527  0.7557  0.0258  -3.4183   0.0000   0.0000   0.0000  -9.6800
  -6.300  -0.0044   0.01074   0.00487  -0.1528  0.7543  0.0261  -3.3432   0.0000   0.0000   0.0000  -35.8669
  -6.200   0.0072   0.01063   0.00475  -0.1529  0.7530  0.0264  -3.2686   0.0000   0.0000   0.0000  22.2712
  -6.100   0.0187   0.01054   0.00463  -0.1530  0.7518  0.0267  -3.1946   0.0000   0.0000   0.0000   8.6819
  -6.000   0.0303   0.01045   0.00452  -0.1531  0.7507  0.0270  -3.1209   0.0000   0.0000   0.0000   5.4618
  -5.900   0.0419   0.01038   0.00442  -0.1532  0.7496  0.0273  -3.0473   0.0000   0.0000   0.0000   4.0195
  -5.800   0.0534   0.01020   0.00422  -0.1534  0.7485  0.0278  -2.9782   0.0000   0.0000   0.0000   3.2082
  -5.700   0.0649   0.01006   0.00409  -0.1535  0.7471  0.0284  -2.9060   0.0000   0.0000   0.0000   2.6832
  -5.600   0.0765   0.00997   0.00399  -0.1537  0.7457  0.0289  -2.8328   0.0000   0.0000   0.0000   2.3154
  -5.500   0.0881   0.00989   0.00390  -0.1538  0.7444  0.0295  -2.7603   0.0000   0.0000   0.0000   2.0438
  -5.400   0.0997   0.00981   0.00381  -0.1539  0.7430  0.0300  -2.6924   0.0000   0.0000   0.0000   1.8351
  -5.300   0.1113   0.00973   0.00372  -0.1540  0.7418  0.0306  -2.6289   0.0000   0.0000   0.0000   1.6698
  -5.200   0.1229   0.00966   0.00363  -0.1541  0.7406  0.0312  -2.5659   0.0000   0.0000   0.0000   1.5356
  -5.100   0.1345   0.00957   0.00351  -0.1542  0.7394  0.0319  -2.5049   0.0000   0.0000   0.0000   1.4247
  -5.000   0.1461   0.00945   0.00339  -0.1543  0.7382  0.0329  -2.4434   0.0000   0.0000   0.0000   1.3317
  -4.900   0.1577   0.00936   0.00331  -0.1544  0.7367  0.0339  -2.3808   0.0000   0.0000   0.0000   1.2523
  -4.800   0.1694   0.00929   0.00323  -0.1545  0.7352  0.0350  -2.3192   0.0000   0.0000   0.0000   1.1836
  -4.700   0.1810   0.00922   0.00315  -0.1546  0.7337  0.0361  -2.2586   0.0000   0.0000   0.0000   1.1235
  -4.600   0.1926   0.00910   0.00304  -0.1547  0.7323  0.0380  -2.1989   0.0000   0.0000   0.0000   1.0711
  -4.500   0.2042   0.00903   0.00296  -0.1548  0.7310  0.0400  -2.1386   0.0000   0.0000   0.0000   1.0245
  -4.400   0.2159   0.00894   0.00287  -0.1550  0.7297  0.0425  -2.0793   0.0000   0.0000   0.0000   0.9829
  -4.300   0.2275   0.00888   0.00280  -0.1551  0.7285  0.0453  -2.0192   0.0000   0.0000   0.0000   0.9455
  -4.200   0.2391   0.00879   0.00273  -0.1552  0.7271  0.0486  -1.9634   0.0000   0.0000   0.0000   0.9118
  -4.100   0.2508   0.00873   0.00268  -0.1553  0.7256  0.0520  -1.9092   0.0000   0.0000   0.0000   0.8812
  -4.000   0.2624   0.00866   0.00263  -0.1554  0.7242  0.0558  -1.8547   0.0000   0.0000   0.0000   0.8533
  -3.900   0.2741   0.00859   0.00257  -0.1555  0.7228  0.0595  -1.8005   0.0000   0.0000   0.0000   0.8277
  -3.800   0.2857   0.00854   0.00252  -0.1556  0.7215  0.0634  -1.7465   0.0000   0.0000   0.0000   0.8042
  -3.700   0.2974   0.00848   0.00247  -0.1558  0.7203  0.0675  -1.6928   0.0000   0.0000   0.0000   0.7826
  -3.600   0.3090   0.00843   0.00241  -0.1559  0.7191  0.0719  -1.6394   0.0000   0.0000   0.0000   0.7626
  -3.500   0.3207   0.00838   0.00237  -0.1560  0.7179  0.0766  -1.5862   0.0000   0.0000   0.0000   0.7441
  -3.400   0.3323   0.00831   0.00233  -0.1561  0.7165  0.0820  -1.5335   0.0000   0.0000   0.0000   0.7268
  -3.300   0.3440   0.00825   0.00229  -0.1562  0.7149  0.0883  -1.4811   0.0000   0.0000   0.0000   0.7108
  -3.200   0.3556   0.00819   0.00225  -0.1564  0.7134  0.0949  -1.4291   0.0000   0.0000   0.0000   0.6958
  -3.100   0.3672   0.00813   0.00222  -0.1565  0.7119  0.1017  -1.3776   0.0000   0.0000   0.0000   0.6817
  -3.000   0.3788   0.00808   0.00218  -0.1566  0.7104  0.1088  -1.3265   0.0000   0.0000   0.0000   0.6685
  -2.900   0.3905   0.00803   0.00214  -0.1567  0.7090  0.1165  -1.2759   0.0000   0.0000   0.0000   0.6561
  -2.800   0.4021   0.00799   0.00211  -0.1568  0.7076  0.1249  -1.2257   0.0000   0.0000   0.0000   0.6444
  -2.700   0.4137   0.00793   0.00209  -0.1569  0.7059  0.1337  -1.1760   0.0000   0.0000   0.0000   0.6334
  -2.600   0.4253   0.00788   0.00206  -0.1570  0.7043  0.1427  -1.1267   0.0000   0.0000   0.0000   0.6230
  -2.500   0.4370   0.00782   0.00204  -0.1572  0.7026  0.1519  -1.0779   0.0000   0.0000   0.0000   0.6131
  -2.400   0.4486   0.00777   0.00201  -0.1573  0.7011  0.1615  -1.0319   0.0000   0.0000   0.0000   0.6037
  -2.300   0.4602   0.00773   0.00199  -0.1574  0.6997  0.1722  -0.9881   0.0000   0.0000   0.0000   0.5948
  -2.100   0.4835   0.00766   0.00196  -0.1576  0.6970  0.1943  -0.9016   0.0000   0.0000   0.0000   0.5783
  -2.000   0.4951   0.00760   0.00194  -0.1578  0.6954  0.2058  -0.8591   0.0000   0.0000   0.0000   0.5707
  -1.900   0.5068   0.00754   0.00193  -0.1579  0.6937  0.2181  -0.8333   0.0000   0.0000   0.0000   0.5634
  -1.800   0.5184   0.00750   0.00192  -0.1580  0.6920  0.2311  -0.8413   0.0000   0.0000   0.0000   0.5564
  -1.700   0.5301   0.00746   0.00191  -0.1581  0.6904  0.2431  -0.8493   0.0000   0.0000   0.0000   0.5497
  -1.600   0.5417   0.00743   0.00189  -0.1582  0.6889  0.2536  -0.8573   0.0000   0.0000   0.0000   0.5432
  -1.500   0.5533   0.00740   0.00188  -0.1583  0.6875  0.2644  -0.8653   0.0000   0.0000   0.0000   0.5371
  -1.400   0.5649   0.00737   0.00188  -0.1585  0.6859  0.2767  -0.8733   0.0000   0.0000   0.0000   0.5312
  -1.300   0.5765   0.00732   0.00187  -0.1586  0.6842  0.2904  -0.8813   0.0000   0.0000   0.0000   0.5255
  -1.200   0.5882   0.00728   0.00187  -0.1587  0.6823  0.3033  -0.8894   0.0000   0.0000   0.0000   0.5201
  -1.100   0.5998   0.00724   0.00186  -0.1588  0.6805  0.3162  -0.8974   0.0000   0.0000   0.0000   0.5149
  -1.000   0.6113   0.00721   0.00186  -0.1589  0.6788  0.3306  -0.9054   0.0000   0.0000   0.0000   0.5099
  -0.900   0.6229   0.00718   0.00185  -0.1590  0.6771  0.3467  -0.9141   0.0000   0.0000   0.0000   0.5050
  -0.800   0.6345   0.00714   0.00185  -0.1591  0.6751  0.3624  -0.9233   0.0000   0.0000   0.0000   0.5004
  -0.600   0.6577   0.00706   0.00185  -0.1594  0.6708  0.3918  -0.9417   0.0000   0.0000   0.0000   0.4915
  -0.500   0.6692   0.00703   0.00185  -0.1595  0.6688  0.4076  -0.9509   0.0000   0.0000   0.0000   0.4873
  -0.400   0.6807   0.00701   0.00185  -0.1596  0.6670  0.4241  -0.9603   0.0000   0.0000   0.0000   0.4833
  -0.300   0.6923   0.00698   0.00186  -0.1597  0.6653  0.4406  -0.9698   0.0000   0.0000   0.0000   0.4793
  -0.200   0.7039   0.00694   0.00187  -0.1598  0.6632  0.4571  -0.9793   0.0000   0.0000   0.0000   0.4755
  -0.100   0.7155   0.00691   0.00188  -0.1599  0.6611  0.4740  -0.9888   0.0000   0.0000   0.0000   0.4719
   0.000   0.7271   0.00688   0.00189  -0.1600  0.6592  0.4910  -0.9983   0.0000   0.0000   0.0000   0.4683
   0.100   0.7386   0.00685   0.00190  -0.1601  0.6573  0.5094  -1.0078   0.0000   0.0000   0.0000   0.4648
   0.200   0.7500   0.00683   0.00191  -0.1602  0.6556  0.5305  -1.0173   0.0000   0.0000   0.0000   0.4615
   0.300   0.7616   0.00679   0.00193  -0.1603  0.6535  0.5526  -1.0268   0.0000   0.0000   0.0000   0.4583
   0.400   0.7732   0.00676   0.00195  -0.1604  0.6512  0.5729  -1.0364   0.0000   0.0000   0.0000   0.4551
   0.500   0.7846   0.00673   0.00197  -0.1605  0.6489  0.5925  -1.0459   0.0000   0.0000   0.0000   0.4520
   0.600   0.7960   0.00671   0.00198  -0.1606  0.6466  0.6133  -1.0554   0.0000   0.0000   0.0000   0.4490
   0.700   0.8072   0.00670   0.00201  -0.1606  0.6443  0.6342  -1.0648   0.0000   0.0000   0.0000   0.4461
   0.800   0.8187   0.00667   0.00203  -0.1607  0.6415  0.6546  -1.0744   0.0000   0.0000   0.0000   0.4433
   0.900   0.8300   0.00665   0.00206  -0.1607  0.6387  0.6749  -1.0851   0.0000   0.0000   0.0000   0.4405
   1.000   0.8412   0.00665   0.00208  -0.1607  0.6361  0.6925  -1.0959   0.0000   0.0000   0.0000   0.4378
   1.100   0.8522   0.00666   0.00211  -0.1607  0.6337  0.7091  -1.1067   0.0000   0.0000   0.0000   0.4351
   1.200   0.8636   0.00665   0.00214  -0.1607  0.6309  0.7248  -1.1176   0.0000   0.0000   0.0000   0.4326
   1.300   0.8749   0.00665   0.00217  -0.1607  0.6282  0.7384  -1.1285   0.0000   0.0000   0.0000   0.4301
   1.400   0.8860   0.00667   0.00219  -0.1607  0.6257  0.7498  -1.1394   0.0000   0.0000   0.0000   0.4276
   1.500   0.8970   0.00669   0.00222  -0.1607  0.6234  0.7602  -1.1505   0.0000   0.0000   0.0000   0.4252
   1.600   0.9083   0.00669   0.00225  -0.1607  0.6208  0.7705  -1.1617   0.0000   0.0000   0.0000   0.4229
   1.700   0.9194   0.00669   0.00228  -0.1607  0.6181  0.7810  -1.1729   0.0000   0.0000   0.0000   0.4206
   1.800   0.9304   0.00671   0.00230  -0.1606  0.6154  0.7913  -1.1841   0.0000   0.0000   0.0000   0.4183
   1.900   0.9412   0.00674   0.00233  -0.1606  0.6129  0.8010  -1.1951   0.0000   0.0000   0.0000   0.4161
   2.000   0.9523   0.00674   0.00236  -0.1605  0.6100  0.8108  -1.2063   0.0000   0.0000   0.0000   0.4140
   2.100   0.9632   0.00676   0.00239  -0.1605  0.6068  0.8205  -1.2189   0.0000   0.0000   0.0000   0.4119
   2.200   0.9739   0.00678   0.00242  -0.1604  0.6036  0.8301  -1.2320   0.0000   0.0000   0.0000   0.4098
   2.300   0.9846   0.00680   0.00245  -0.1603  0.6003  0.8398  -1.2451   0.0000   0.0000   0.0000   0.4078
   2.400   0.9953   0.00682   0.00248  -0.1602  0.5966  0.8493  -1.2583   0.0000   0.0000   0.0000   0.4058
   2.500   1.0057   0.00684   0.00251  -0.1600  0.5930  0.8586  -1.2712   0.0000   0.0000   0.0000   0.4038
   2.600   1.0160   0.00686   0.00254  -0.1598  0.5896  0.8683  -1.2841   0.0000   0.0000   0.0000   0.4019
   2.700   1.0262   0.00687   0.00258  -0.1596  0.5859  0.8792  -1.2970   0.0000   0.0000   0.0000   0.4000
   2.800   1.0360   0.00689   0.00261  -0.1593  0.5824  0.8909  -1.3096   0.0000   0.0000   0.0000   0.3981
   2.900   1.0455   0.00691   0.00264  -0.1589  0.5793  0.9038  -1.3220   0.0000   0.0000   0.0000   0.3962
   3.000   1.0547   0.00690   0.00266  -0.1585  0.5759  0.9190  -1.3342   0.0000   0.0000   0.0000   0.3943
   3.100   1.0628   0.00689   0.00268  -0.1577  0.5726  0.9412  -1.3457   0.0000   0.0000   0.0000   0.3923
   3.200   1.0733   0.00688   0.00268  -0.1576  0.5694  1.0000  -1.3589   0.0000   0.0000   0.0000   0.3906
   3.300   1.0847   0.00692   0.00271  -0.1577  0.5659  1.0000  -1.3728   0.0000   0.0000   0.0000   0.3890
   3.400   1.0959   0.00698   0.00275  -0.1577  0.5621  1.0000  -1.3865   0.0000   0.0000   0.0000   0.3875
   3.500   1.1067   0.00705   0.00279  -0.1577  0.5587  1.0000  -1.3999   0.0000   0.0000   0.0000   0.3859
   3.600   1.1180   0.00710   0.00283  -0.1578  0.5550  1.0000  -1.4137   0.0000   0.0000   0.0000   0.3844
   3.700   1.1290   0.00716   0.00287  -0.1578  0.5510  1.0000  -1.4274   0.0000   0.0000   0.0000   0.3829
   3.900   1.1508   0.00728   0.00297  -0.1578  0.5433  1.0000  -1.4553   0.0000   0.0000   0.0000   0.3800
   4.000   1.1616   0.00735   0.00302  -0.1578  0.5391  1.0000  -1.4705   0.0000   0.0000   0.0000   0.3786
   4.100   1.1722   0.00743   0.00307  -0.1578  0.5351  1.0000  -1.4857   0.0000   0.0000   0.0000   0.3771
   4.200   1.1831   0.00749   0.00312  -0.1578  0.5305  1.0000  -1.5016   0.0000   0.0000   0.0000   0.3758
   4.300   1.1936   0.00757   0.00318  -0.1577  0.5261  1.0000  -1.5172   0.0000   0.0000   0.0000   0.3744
   4.400   1.2044   0.00764   0.00323  -0.1577  0.5217  1.0000  -1.5332   0.0000   0.0000   0.0000   0.3731
   4.500   1.2149   0.00772   0.00329  -0.1576  0.5171  1.0000  -1.5489   0.0000   0.0000   0.0000   0.3717
   4.600   1.2253   0.00780   0.00335  -0.1575  0.5129  1.0000  -1.5649   0.0000   0.0000   0.0000   0.3704
   4.700   1.2360   0.00787   0.00341  -0.1575  0.5084  1.0000  -1.5819   0.0000   0.0000   0.0000   0.3691
   4.800   1.2461   0.00797   0.00348  -0.1574  0.5042  1.0000  -1.5985   0.0000   0.0000   0.0000   0.3679
   4.900   1.2568   0.00804   0.00354  -0.1573  0.4999  1.0000  -1.6156   0.0000   0.0000   0.0000   0.3666
   5.000   1.2672   0.00813   0.00361  -0.1572  0.4952  1.0000  -1.6325   0.0000   0.0000   0.0000   0.3654
   5.100   1.2774   0.00822   0.00368  -0.1571  0.4909  1.0000  -1.6492   0.0000   0.0000   0.0000   0.3642
   5.200   1.2878   0.00830   0.00375  -0.1570  0.4861  1.0000  -1.6667   0.0000   0.0000   0.0000   0.3630
   5.300   1.2976   0.00841   0.00383  -0.1569  0.4815  1.0000  -1.6861   0.0000   0.0000   0.0000   0.3618
   5.400   1.3080   0.00849   0.00390  -0.1568  0.4763  1.0000  -1.7064   0.0000   0.0000   0.0000   0.3606
   5.600   1.3280   0.00869   0.00406  -0.1565  0.4657  1.0000  -1.7460   0.0000   0.0000   0.0000   0.3583
   5.700   1.3376   0.00881   0.00415  -0.1563  0.4604  1.0000  -1.7655   0.0000   0.0000   0.0000   0.3571
   5.800   1.3477   0.00890   0.00423  -0.1562  0.4551  1.0000  -1.7855   0.0000   0.0000   0.0000   0.3560
   5.900   1.3572   0.00902   0.00432  -0.1559  0.4497  1.0000  -1.8050   0.0000   0.0000   0.0000   0.3549
   6.000   1.3671   0.00912   0.00441  -0.1558  0.4446  1.0000  -1.8255   0.0000   0.0000   0.0000   0.3538
   6.100   1.3767   0.00924   0.00451  -0.1555  0.4395  1.0000  -1.8500   0.0000   0.0000   0.0000   0.3527
   6.200   1.3864   0.00935   0.00460  -0.1554  0.4346  1.0000  -1.8748   0.0000   0.0000   0.0000   0.3516
   6.300   1.3958   0.00947   0.00470  -0.1551  0.4291  1.0000  -1.8993   0.0000   0.0000   0.0000   0.3505
   6.400   1.4052   0.00959   0.00480  -0.1549  0.4238  1.0000  -1.9239   0.0000   0.0000   0.0000   0.3495
   6.500   1.4144   0.00972   0.00491  -0.1546  0.4178  1.0000  -1.9483   0.0000   0.0000   0.0000   0.3484
   6.600   1.4237   0.00985   0.00501  -0.1543  0.4121  1.0000  -1.9729   0.0000   0.0000   0.0000   0.3473
   6.700   1.4325   0.01000   0.00513  -0.1540  0.4061  1.0000  -1.9970   0.0000   0.0000   0.0000   0.3463
   6.800   1.4417   0.01012   0.00523  -0.1537  0.4001  1.0000  -2.0217   0.0000   0.0000   0.0000   0.3453
   6.900   1.4502   0.01028   0.00537  -0.1533  0.3939  1.0000  -2.0456   0.0000   0.0000   0.0000   0.3442
   7.000   1.4591   0.01042   0.00548  -0.1530  0.3874  1.0000  -2.0700   0.0000   0.0000   0.0000   0.3432
   7.100   1.4675   0.01058   0.00561  -0.1526  0.3812  1.0000  -2.0939   0.0000   0.0000   0.0000   0.3422
   7.200   1.4757   0.01075   0.00575  -0.1522  0.3748  1.0000  -2.1176   0.0000   0.0000   0.0000   0.3411
   7.300   1.4842   0.01089   0.00587  -0.1518  0.3689  1.0000  -2.1443   0.0000   0.0000   0.0000   0.3401
   7.500   1.5006   0.01122   0.00615  -0.1509  0.3569  1.0000  -2.2059   0.0000   0.0000   0.0000   0.3381
   7.600   1.5083   0.01139   0.00630  -0.1504  0.3512  1.0000  -2.2361   0.0000   0.0000   0.0000   0.3371
   7.700   1.5161   0.01155   0.00643  -0.1499  0.3451  1.0000  -2.2665   0.0000   0.0000   0.0000   0.3361
   7.800   1.5231   0.01172   0.00658  -0.1493  0.3394  1.0000  -2.2959   0.0000   0.0000   0.0000   0.3350
   7.900   1.5301   0.01190   0.00674  -0.1486  0.3331  1.0000  -2.3253   0.0000   0.0000   0.0000   0.3340
   8.000   1.5373   0.01208   0.00689  -0.1480  0.3273  1.0000  -2.3551   0.0000   0.0000   0.0000   0.3330
   8.200   1.5508   0.01247   0.00724  -0.1466  0.3156  1.0000  -2.4136   0.0000   0.0000   0.0000   0.3310
   8.300   1.5570   0.01269   0.00743  -0.1459  0.3100  1.0000  -2.4421   0.0000   0.0000   0.0000   0.3299
   8.400   1.5636   0.01289   0.00761  -0.1452  0.3040  1.0000  -2.4713   0.0000   0.0000   0.0000   0.3289
   8.500   1.5698   0.01311   0.00781  -0.1445  0.2984  1.0000  -2.5000   0.0000   0.0000   0.0000   0.3279
   8.600   1.5756   0.01335   0.00802  -0.1437  0.2923  1.0000  -2.5281   0.0000   0.0000   0.0000   0.3269
   8.700   1.5820   0.01357   0.00822  -0.1430  0.2864  1.0000  -2.5573   0.0000   0.0000   0.0000   0.3260
   8.800   1.5875   0.01383   0.00845  -0.1422  0.2808  1.0000  -2.5851   0.0000   0.0000   0.0000   0.3250
   8.900   1.5939   0.01405   0.00866  -0.1415  0.2751  1.0000  -2.6144   0.0000   0.0000   0.0000   0.3240
   9.000   1.5995   0.01431   0.00889  -0.1408  0.2701  1.0000  -2.6497   0.0000   0.0000   0.0000   0.3231
   9.100   1.6055   0.01456   0.00912  -0.1401  0.2650  1.0000  -2.6922   0.0000   0.0000   0.0000   0.3221
   9.200   1.6111   0.01483   0.00938  -0.1393  0.2605  1.0000  -2.7399   0.0000   0.0000   0.0000   0.3212
   9.300   1.6171   0.01508   0.00962  -0.1386  0.2559  1.0000  -2.7970   0.0000   0.0000   0.0000   0.3203
   9.400   1.6225   0.01537   0.00989  -0.1379  0.2516  1.0000  -2.8523   0.0000   0.0000   0.0000   0.3193
   9.500   1.6285   0.01563   0.01014  -0.1372  0.2470  1.0000  -2.9102   0.0000   0.0000   0.0000   0.3185
   9.600   1.6334   0.01595   0.01045  -0.1364  0.2426  1.0000  -2.9647   0.0000   0.0000   0.0000   0.3175
   9.700   1.6393   0.01623   0.01072  -0.1358  0.2378  1.0000  -3.0227   0.0000   0.0000   0.0000   0.3167
   9.800   1.6440   0.01657   0.01104  -0.1350  0.2331  1.0000  -3.0772   0.0000   0.0000   0.0000   0.3158
   9.900   1.6495   0.01688   0.01134  -0.1343  0.2278  1.0000  -3.1347   0.0000   0.0000   0.0000   0.3149
  10.000   1.6541   0.01725   0.01168  -0.1335  0.2227  1.0000  -3.1894   0.0000   0.0000   0.0000   0.3140
  10.100   1.6586   0.01762   0.01203  -0.1328  0.2172  1.0000  -3.2444   0.0000   0.0000   0.0000   0.3132
  10.200   1.6633   0.01799   0.01239  -0.1320  0.2120  1.0000  -3.3000   0.0000   0.0000   0.0000   0.3123
  10.300   1.6670   0.01843   0.01279  -0.1312  0.2067  1.0000  -3.3526   0.0000   0.0000   0.0000   0.3114
  10.400   1.6717   0.01881   0.01316  -0.1305  0.2012  1.0000  -3.4091   0.0000   0.0000   0.0000   0.3106
  10.500   1.6755   0.01925   0.01358  -0.1297  0.1961  1.0000  -3.4625   0.0000   0.0000   0.0000   0.3098
  10.600   1.6793   0.01970   0.01401  -0.1289  0.1908  1.0000  -3.5162   0.0000   0.0000   0.0000   0.3089
  10.700   1.6834   0.02013   0.01442  -0.1282  0.1858  1.0000  -3.5715   0.0000   0.0000   0.0000   0.3081
  10.800   1.6866   0.02063   0.01489  -0.1273  0.1809  1.0000  -3.6236   0.0000   0.0000   0.0000   0.3073
  10.900   1.6910   0.02105   0.01531  -0.1267  0.1758  1.0000  -3.6806   0.0000   0.0000   0.0000   0.3065
  11.000   1.6946   0.02153   0.01577  -0.1259  0.1711  1.0000  -3.7345   0.0000   0.0000   0.0000   0.3057
  11.100   1.6982   0.02202   0.01624  -0.1252  0.1661  1.0000  -3.7888   0.0000   0.0000   0.0000   0.3049
  11.200   1.7018   0.02251   0.01672  -0.1244  0.1614  1.0000  -3.8435   0.0000   0.0000   0.0000   0.3041
  11.400   1.7083   0.02355   0.01773  -0.1229  0.1523  1.0000  -3.9510   0.0000   0.0000   0.0000   0.3026
  11.500   1.7111   0.02412   0.01827  -0.1222  0.1482  1.0000  -4.0032   0.0000   0.0000   0.0000   0.3018
  11.600   1.7145   0.02464   0.01879  -0.1215  0.1440  1.0000  -4.0580   0.0000   0.0000   0.0000   0.3011
  11.700   1.7172   0.02521   0.01935  -0.1207  0.1402  1.0000  -4.1106   0.0000   0.0000   0.0000   0.3003
  11.800   1.7204   0.02576   0.01989  -0.1200  0.1360  1.0000  -4.1651   0.0000   0.0000   0.0000   0.2996
  11.900   1.7230   0.02634   0.02046  -0.1192  0.1321  1.0000  -4.2177   0.0000   0.0000   0.0000   0.2989
  12.000   1.7256   0.02694   0.02104  -0.1185  0.1280  1.0000  -4.2704   0.0000   0.0000   0.0000   0.2981
  12.100   1.7282   0.02754   0.02163  -0.1178  0.1242  1.0000  -4.3234   0.0000   0.0000   0.0000   0.2974
  12.200   1.7304   0.02818   0.02226  -0.1170  0.1203  1.0000  -4.3747   0.0000   0.0000   0.0000   0.2967
  12.300   1.7330   0.02878   0.02286  -0.1163  0.1166  1.0000  -4.4281   0.0000   0.0000   0.0000   0.2960
  12.400   1.7348   0.02946   0.02352  -0.1156  0.1129  1.0000  -4.4783   0.0000   0.0000   0.0000   0.2953
  12.500   1.7374   0.03008   0.02414  -0.1149  0.1095  1.0000  -4.5319   0.0000   0.0000   0.0000   0.2946
  12.600   1.7389   0.03078   0.02483  -0.1141  0.1062  1.0000  -4.5813   0.0000   0.0000   0.0000   0.2939
  12.700   1.7413   0.03141   0.02546  -0.1135  0.1031  1.0000  -4.6348   0.0000   0.0000   0.0000   0.2932
  12.800   1.7429   0.03212   0.02616  -0.1127  0.1000  1.0000  -4.6849   0.0000   0.0000   0.0000   0.2925
  12.900   1.7452   0.03278   0.02682  -0.1121  0.0972  1.0000  -4.7380   0.0000   0.0000   0.0000   0.2918
  13.000   1.7470   0.03348   0.02752  -0.1114  0.0942  1.0000  -4.7895   0.0000   0.0000   0.0000   0.2911
  13.100   1.7489   0.03419   0.02822  -0.1108  0.0916  1.0000  -4.8414   0.0000   0.0000   0.0000   0.2905
  13.200   1.7510   0.03489   0.02892  -0.1101  0.0888  1.0000  -4.8943   0.0000   0.0000   0.0000   0.2898
  13.300   1.7524   0.03565   0.02968  -0.1095  0.0863  1.0000  -4.9442   0.0000   0.0000   0.0000   0.2892
  13.400   1.7547   0.03634   0.03038  -0.1089  0.0837  1.0000  -4.9987   0.0000   0.0000   0.0000   0.2886
  13.500   1.7560   0.03712   0.03115  -0.1082  0.0812  1.0000  -5.0487   0.0000   0.0000   0.0000   0.2879
  13.600   1.7580   0.03785   0.03189  -0.1076  0.0790  1.0000  -5.1017   0.0000   0.0000   0.0000   0.2873
  13.700   1.7595   0.03862   0.03266  -0.1070  0.0767  1.0000  -5.1531   0.0000   0.0000   0.0000   0.2867
  13.800   1.7606   0.03944   0.03348  -0.1064  0.0747  1.0000  -5.2023   0.0000   0.0000   0.0000   0.2861
  13.900   1.7628   0.04018   0.03423  -0.1059  0.0727  1.0000  -5.2569   0.0000   0.0000   0.0000   0.2855
  14.000   1.7642   0.04099   0.03504  -0.1053  0.0706  1.0000  -5.3079   0.0000   0.0000   0.0000   0.2849
  14.100   1.7654   0.04183   0.03589  -0.1048  0.0688  1.0000  -5.3582   0.0000   0.0000   0.0000   0.2843
  14.200   1.7672   0.04262   0.03669  -0.1043  0.0669  1.0000  -5.4113   0.0000   0.0000   0.0000   0.2838
  14.300   1.7682   0.04348   0.03756  -0.1037  0.0650  1.0000  -5.4613   0.0000   0.0000   0.0000   0.2832
  14.400   1.7693   0.04436   0.03844  -0.1032  0.0633  1.0000  -5.5114   0.0000   0.0000   0.0000   0.2826
  14.500   1.7710   0.04518   0.03928  -0.1027  0.0614  1.0000  -5.5646   0.0000   0.0000   0.0000   0.2821
  14.600   1.7717   0.04609   0.04019  -0.1022  0.0595  1.0000  -5.6135   0.0000   0.0000   0.0000   0.2815
  14.700   1.7726   0.04700   0.04111  -0.1017  0.0578  1.0000  -5.6630   0.0000   0.0000   0.0000   0.2810
  14.800   1.7738   0.04788   0.04200  -0.1012  0.0561  1.0000  -5.7141   0.0000   0.0000   0.0000   0.2805
  14.900   1.7739   0.04887   0.04299  -0.1007  0.0544  1.0000  -5.7607   0.0000   0.0000   0.0000   0.2799
  15.000   1.7749   0.04979   0.04393  -0.1003  0.0528  1.0000  -5.8109   0.0000   0.0000   0.0000   0.2794
  15.100   1.7759   0.05071   0.04486  -0.0999  0.0511  1.0000  -5.8616   0.0000   0.0000   0.0000   0.2789
  15.200   1.7758   0.05175   0.04591  -0.0994  0.0494  1.0000  -5.9071   0.0000   0.0000   0.0000   0.2784
  15.300   1.7766   0.05271   0.04688  -0.0990  0.0479  1.0000  -5.9570   0.0000   0.0000   0.0000   0.2779
  15.400   1.7770   0.05373   0.04791  -0.0986  0.0463  1.0000  -6.0048   0.0000   0.0000   0.0000   0.2775
  15.500   1.7766   0.05483   0.04901  -0.0981  0.0449  1.0000  -6.0493   0.0000   0.0000   0.0000   0.2770
  15.600   1.7772   0.05584   0.05004  -0.0978  0.0436  1.0000  -6.0978   0.0000   0.0000   0.0000   0.2765
  15.700   1.7774   0.05690   0.05112  -0.0974  0.0422  1.0000  -6.1452   0.0000   0.0000   0.0000   0.2761
  15.800   1.7771   0.05802   0.05225  -0.0970  0.0409  1.0000  -6.1897   0.0000   0.0000   0.0000   0.2757
  15.900   1.7766   0.05916   0.05340  -0.0967  0.0398  1.0000  -6.2338   0.0000   0.0000   0.0000   0.2752
  16.000   1.7771   0.06020   0.05446  -0.0964  0.0387  1.0000  -6.2822   0.0000   0.0000   0.0000   0.2748
  16.100   1.7767   0.06134   0.05562  -0.0960  0.0376  1.0000  -6.3265   0.0000   0.0000   0.0000   0.2744
  16.200   1.7756   0.06256   0.05685  -0.0957  0.0365  1.0000  -6.3674   0.0000   0.0000   0.0000   0.2740
  16.300   1.7754   0.06370   0.05801  -0.0954  0.0356  1.0000  -6.4128   0.0000   0.0000   0.0000   0.2736
  16.400   1.7755   0.06481   0.05915  -0.0951  0.0345  1.0000  -6.4595   0.0000   0.0000   0.0000   0.2732
  16.500   1.7750   0.06599   0.06034  -0.0948  0.0335  1.0000  -6.5038   0.0000   0.0000   0.0000   0.2728
  16.600   1.7737   0.06729   0.06166  -0.0946  0.0326  1.0000  -6.5435   0.0000   0.0000   0.0000   0.2724
  16.700   1.7732   0.06850   0.06289  -0.0943  0.0317  1.0000  -6.5868   0.0000   0.0000   0.0000   0.2721
  16.800   1.7731   0.06967   0.06409  -0.0941  0.0309  1.0000  -6.6325   0.0000   0.0000   0.0000   0.2717
  16.900   1.7723   0.07093   0.06537  -0.0939  0.0300  1.0000  -6.6747   0.0000   0.0000   0.0000   0.2714
  17.000   1.7709   0.07226   0.06671  -0.0937  0.0291  1.0000  -6.7142   0.0000   0.0000   0.0000   0.2710
  17.100   1.7692   0.07364   0.06812  -0.0935  0.0283  1.0000  -6.7515   0.0000   0.0000   0.0000   0.2707
  17.200   1.7692   0.07483   0.06934  -0.0934  0.0275  1.0000  -6.7973   0.0000   0.0000   0.0000   0.2704
  17.300   1.7682   0.07614   0.07067  -0.0933  0.0267  1.0000  -6.8385   0.0000   0.0000   0.0000   0.2701
  17.400   1.7667   0.07750   0.07205  -0.0931  0.0259  1.0000  -6.8771   0.0000   0.0000   0.0000   0.2698
  17.500   1.7645   0.07897   0.07354  -0.0930  0.0252  1.0000  -6.9114   0.0000   0.0000   0.0000   0.2696
  17.600   1.7631   0.08033   0.07493  -0.0929  0.0245  1.0000  -6.9500   0.0000   0.0000   0.0000   0.2693
  17.700   1.7619   0.08169   0.07631  -0.0928  0.0239  1.0000  -6.9892   0.0000   0.0000   0.0000   0.2690
  17.800   1.7601   0.08311   0.07776  -0.0927  0.0232  1.0000  -7.0258   0.0000   0.0000   0.0000   0.2688
  17.900   1.7580   0.08459   0.07926  -0.0927  0.0226  1.0000  -7.0605   0.0000   0.0000   0.0000   0.2685
  18.000   1.7554   0.08616   0.08086  -0.0926  0.0220  1.0000  -7.0918   0.0000   0.0000   0.0000   0.2683
  18.100   1.7533   0.08766   0.08238  -0.0926  0.0215  1.0000  -7.1279   0.0000   0.0000   0.0000   0.2681
  18.200   1.7517   0.08911   0.08387  -0.0926  0.0211  1.0000  -7.1728   0.0000   0.0000   0.0000   0.2679
  18.300   1.7500   0.09058   0.08536  -0.0926  0.0206  1.0000  -7.2171   0.0000   0.0000   0.0000   0.2677
  18.400   1.7476   0.09214   0.08695  -0.0927  0.0201  1.0000  -7.2573   0.0000   0.0000   0.0000   0.2676
  18.500   1.7452   0.09372   0.08855  -0.0928  0.0197  1.0000  -7.2967   0.0000   0.0000   0.0000   0.2674
  18.600   1.7421   0.09539   0.09026  -0.0929  0.0193  1.0000  -7.3318   0.0000   0.0000   0.0000   0.2673
  18.700   1.7390   0.09707   0.09197  -0.0930  0.0189  1.0000  -7.3665   0.0000   0.0000   0.0000   0.2672
  18.800   1.7366   0.09867   0.09360  -0.0931  0.0185  1.0000  -7.4056   0.0000   0.0000   0.0000   0.2671
  18.900   1.7349   0.10017   0.09513  -0.0932  0.0182  1.0000  -7.4491   0.0000   0.0000   0.0000   0.2670
  19.000   1.7326   0.10174   0.09673  -0.0934  0.0178  1.0000  -7.4890   0.0000   0.0000   0.0000   0.2669
  19.100   1.7301   0.10335   0.09838  -0.0935  0.0175  1.0000  -7.5269   0.0000   0.0000   0.0000   0.2668
  19.200   1.7273   0.10500   0.10006  -0.0937  0.0171  1.0000  -7.5629   0.0000   0.0000   0.0000   0.2667
  19.300   1.7241   0.10672   0.10181  -0.0940  0.0168  1.0000  -7.5960   0.0000   0.0000   0.0000   0.2667
  19.400   1.7207   0.10848   0.10360  -0.0942  0.0165  1.0000  -7.6277   0.0000   0.0000   0.0000   0.2667
  19.500   1.7170   0.11030   0.10546  -0.0945  0.0162  1.0000  -7.6567   0.0000   0.0000   0.0000   0.2667
  19.700   1.7108   0.11380   0.10902  -0.0952  0.0157  1.0000  -7.7215   0.0000   0.0000   0.0000   0.2667
  19.800   1.7087   0.11541   0.11067  -0.0955  0.0154  1.0000  -7.7603   0.0000   0.0000   0.0000   0.2667
  19.900   1.7060   0.11711   0.11240  -0.0958  0.0152  1.0000  -7.7954   0.0000   0.0000   0.0000   0.2667
  20.000   1.7035   0.11879   0.11412  -0.0962  0.0149  1.0000  -7.8309   0.0000   0.0000   0.0000   0.2668


