xflr5 v6.57

 Calculated polar for: rev_root_140

 1 1 Reynolds number fixed          Mach number fixed         

 xtrf =   1.000 (top)        1.000 (bottom)
 Mach =   0.000     Re =     0.240 e 6     Ncrit =   9.000

  alpha     CL        CD       CDp       Cm    Top Xtr Bot Xtr   Cpmin    Chinge    XCp    
 ------- -------- --------- --------- -------- ------- ------- -------- --------- ---------
 -10.000  -0.0938   0.09775   0.09433  -0.0936  0.9345  0.0549  -1.6125   0.0000   0.0000   0.0000  -0.8250
  -9.900  -0.1105   0.09430   0.09090  -0.0994  0.9288  0.0567  -1.8563   0.0000   0.0000   0.0000  -0.7137
  -9.400   0.0353   0.06427   0.06089  -0.1029  0.8801  0.0643  -1.2590   0.0000   0.0000   0.0000   3.2895
  -9.300   0.0383   0.06328   0.05988  -0.1029  0.8785  0.0650  -1.2418   0.0000   0.0000   0.0000   3.0503
  -9.200   0.0400   0.06216   0.05876  -0.1030  0.8770  0.0657  -1.2349   0.0000   0.0000   0.0000   2.9306
  -9.100   0.0403   0.06090   0.05750  -0.1034  0.8748  0.0667  -1.2404   0.0000   0.0000   0.0000   2.9191
  -9.000   0.0338   0.05899   0.05559  -0.1048  0.8730  0.0682  -1.3019   0.0000   0.0000   0.0000   3.4689
  -8.900  -0.0928   0.08086   0.07738  -0.1060  0.8992  0.0630  -1.9063   0.0000   0.0000   0.0000  -0.9611
  -8.800  -0.0855   0.08036   0.07687  -0.1049  0.8970  0.0632  -1.8412   0.0000   0.0000   0.0000  -1.0506
  -8.700  -0.0791   0.07980   0.07629  -0.1041  0.8950  0.0635  -1.7877   0.0000   0.0000   0.0000  -1.1461
  -8.600  -0.0735   0.07914   0.07561  -0.1037  0.8933  0.0639  -1.7457   0.0000   0.0000   0.0000  -1.2445
  -8.500  -0.0687   0.07836   0.07483  -0.1037  0.8906  0.0644  -1.7150   0.0000   0.0000   0.0000  -1.3475
  -8.400  -0.0650   0.07743   0.07390  -0.1040  0.8881  0.0651  -1.6960   0.0000   0.0000   0.0000  -1.4430
  -8.300  -0.0623   0.07631   0.07277  -0.1045  0.8860  0.0659  -1.6897   0.0000   0.0000   0.0000  -1.5236
  -8.200  -0.0614   0.07485   0.07131  -0.1058  0.8832  0.0671  -1.7069   0.0000   0.0000   0.0000  -1.5684
  -8.000  -0.1381   0.04219   0.03814  -0.1454  0.8707  0.0466  -3.1473   0.0000   0.0000   0.0000  -0.8483
  -7.900  -0.1302   0.04160   0.03754  -0.1457  0.8692  0.0469  -3.0884   0.0000   0.0000   0.0000  -0.9166
  -7.800  -0.1232   0.04104   0.03696  -0.1461  0.8666  0.0473  -3.0357   0.0000   0.0000   0.0000  -0.9847
  -7.700  -0.1148   0.04078   0.03671  -0.1462  0.8646  0.0480  -2.9650   0.0000   0.0000   0.0000  -1.0751
  -7.600  -0.1006   0.04315   0.03920  -0.1444  0.8633  0.0527  -2.7635   0.0000   0.0000   0.0000  -1.2430
  -7.500  -0.0922   0.04276   0.03879  -0.1447  0.8619  0.0535  -2.7056   0.0000   0.0000   0.0000  -1.3796
  -7.400  -0.0842   0.04273   0.03872  -0.1454  0.8600  0.0583  -2.6275   0.0000   0.0000   0.0000  -1.5419
  -7.300  -0.0763   0.04239   0.03838  -0.1455  0.8578  0.0589  -2.5733   0.0000   0.0000   0.0000  -1.7263
  -7.200  -0.0701   0.04147   0.03735  -0.1471  0.8556  0.0640  -2.5391   0.0000   0.0000   0.0000  -1.9241
  -7.100  -0.0611   0.04122   0.03711  -0.1470  0.8542  0.0647  -2.4770   0.0000   0.0000   0.0000  -2.2406
  -6.900  -0.0457   0.03995   0.03574  -0.1485  0.8506  0.0707  -2.3886   0.0000   0.0000   0.0000  -3.1129
  -6.800  -0.0364   0.04009   0.03592  -0.1480  0.8487  0.0722  -2.3152   0.0000   0.0000   0.0000  -3.9507
  -6.600  -0.0321   0.02208   0.01512  -0.1562  0.8446  0.0461  -3.1313   0.0000   0.0000   0.0000  -4.7906
  -6.500  -0.0216   0.02164   0.01469  -0.1563  0.8432  0.0467  -3.0704   0.0000   0.0000   0.0000  -7.2248
  -6.400  -0.0120   0.02137   0.01444  -0.1562  0.8409  0.0473  -3.0127   0.0000   0.0000   0.0000  -13.1894
  -6.300  -0.0016   0.02107   0.01412  -0.1562  0.8390  0.0479  -2.9559   0.0000   0.0000   0.0000  -103.1028
  -6.200   0.0094   0.02071   0.01370  -0.1562  0.8375  0.0486  -2.9038   0.0000   0.0000   0.0000  17.4950
  -6.100   0.0206   0.02031   0.01321  -0.1563  0.8362  0.0491  -2.8547   0.0000   0.0000   0.0000   8.0865
  -6.000   0.0321   0.01991   0.01272  -0.1564  0.8351  0.0498  -2.8063   0.0000   0.0000   0.0000   5.2771
  -5.900   0.0422   0.01960   0.01232  -0.1563  0.8330  0.0504  -2.7621   0.0000   0.0000   0.0000   4.0706
  -5.800   0.0527   0.01932   0.01193  -0.1562  0.8311  0.0510  -2.7169   0.0000   0.0000   0.0000   3.3021
  -5.700   0.0633   0.01891   0.01152  -0.1562  0.8295  0.0517  -2.6647   0.0000   0.0000   0.0000   2.7906
  -5.600   0.0743   0.01860   0.01124  -0.1563  0.8281  0.0525  -2.6053   0.0000   0.0000   0.0000   2.4151
  -5.500   0.0856   0.01835   0.01097  -0.1563  0.8269  0.0534  -2.5458   0.0000   0.0000   0.0000   2.1275
  -5.400   0.0973   0.01812   0.01070  -0.1564  0.8259  0.0547  -2.4871   0.0000   0.0000   0.0000   1.9021
  -5.300   0.1071   0.01797   0.01051  -0.1563  0.8235  0.0560  -2.4370   0.0000   0.0000   0.0000   1.7486
  -5.200   0.1177   0.01772   0.01023  -0.1562  0.8216  0.0573  -2.3853   0.0000   0.0000   0.0000   1.6130
  -5.100   0.1285   0.01747   0.01003  -0.1563  0.8200  0.0586  -2.3304   0.0000   0.0000   0.0000   1.4979
  -5.000   0.1399   0.01726   0.00980  -0.1563  0.8187  0.0602  -2.2798   0.0000   0.0000   0.0000   1.3962
  -4.900   0.1517   0.01704   0.00952  -0.1564  0.8175  0.0621  -2.2343   0.0000   0.0000   0.0000   1.3073
  -4.800   0.1629   0.01676   0.00924  -0.1565  0.8163  0.0638  -2.1874   0.0000   0.0000   0.0000   1.2342
  -4.700   0.1726   0.01660   0.00914  -0.1564  0.8140  0.0657  -2.1400   0.0000   0.0000   0.0000   1.1776
  -4.600   0.1835   0.01644   0.00894  -0.1563  0.8122  0.0683  -2.0950   0.0000   0.0000   0.0000   1.1220
  -4.500   0.1946   0.01619   0.00873  -0.1564  0.8107  0.0708  -2.0464   0.0000   0.0000   0.0000   1.0724
  -4.400   0.2062   0.01602   0.00854  -0.1565  0.8094  0.0743  -1.9966   0.0000   0.0000   0.0000   1.0262
  -4.300   0.2179   0.01580   0.00834  -0.1567  0.8083  0.0780  -1.9447   0.0000   0.0000   0.0000   0.9848
  -4.200   0.2297   0.01565   0.00816  -0.1568  0.8071  0.0827  -1.8940   0.0000   0.0000   0.0000   0.9472
  -4.100   0.2395   0.01556   0.00812  -0.1567  0.8047  0.0871  -1.8453   0.0000   0.0000   0.0000   0.9180
  -4.000   0.2504   0.01542   0.00801  -0.1567  0.8028  0.0922  -1.7998   0.0000   0.0000   0.0000   0.8887
  -3.900   0.2618   0.01527   0.00786  -0.1568  0.8013  0.0982  -1.7547   0.0000   0.0000   0.0000   0.8609
  -3.800   0.2736   0.01511   0.00771  -0.1570  0.7999  0.1051  -1.7083   0.0000   0.0000   0.0000   0.8349
  -3.700   0.2855   0.01496   0.00757  -0.1572  0.7988  0.1127  -1.6601   0.0000   0.0000   0.0000   0.8107
  -3.600   0.2973   0.01482   0.00746  -0.1573  0.7975  0.1212  -1.6117   0.0000   0.0000   0.0000   0.7887
  -3.500   0.3072   0.01476   0.00745  -0.1572  0.7950  0.1298  -1.5674   0.0000   0.0000   0.0000   0.7708
  -3.400   0.3182   0.01466   0.00739  -0.1573  0.7931  0.1399  -1.5201   0.0000   0.0000   0.0000   0.7527
  -3.300   0.3297   0.01455   0.00730  -0.1574  0.7915  0.1516  -1.4716   0.0000   0.0000   0.0000   0.7352
  -3.200   0.3416   0.01442   0.00721  -0.1576  0.7902  0.1645  -1.4224   0.0000   0.0000   0.0000   0.7186
  -3.100   0.3537   0.01430   0.00712  -0.1578  0.7890  0.1780  -1.3724   0.0000   0.0000   0.0000   0.7029
  -3.000   0.3650   0.01423   0.00707  -0.1579  0.7874  0.1922  -1.3248   0.0000   0.0000   0.0000   0.6888
  -2.900   0.3752   0.01417   0.00709  -0.1578  0.7850  0.2050  -1.2797   0.0000   0.0000   0.0000   0.6765
  -2.800   0.3863   0.01410   0.00706  -0.1579  0.7831  0.2187  -1.2325   0.0000   0.0000   0.0000   0.6642
  -2.700   0.3980   0.01401   0.00699  -0.1580  0.7816  0.2335  -1.1845   0.0000   0.0000   0.0000   0.6521
  -2.600   0.4099   0.01392   0.00693  -0.1582  0.7803  0.2482  -1.1361   0.0000   0.0000   0.0000   0.6405
  -2.500   0.4221   0.01382   0.00685  -0.1584  0.7791  0.2633  -1.0875   0.0000   0.0000   0.0000   0.6295
  -2.400   0.4329   0.01379   0.00686  -0.1584  0.7773  0.2785  -1.0457   0.0000   0.0000   0.0000   0.6198
  -2.300   0.4434   0.01376   0.00689  -0.1583  0.7750  0.2937  -1.0052   0.0000   0.0000   0.0000   0.6108
  -2.200   0.4546   0.01370   0.00688  -0.1584  0.7732  0.3102  -0.9634   0.0000   0.0000   0.0000   0.6018
  -2.100   0.4663   0.01363   0.00684  -0.1585  0.7716  0.3277  -0.9209   0.0000   0.0000   0.0000   0.5930
  -2.000   0.4783   0.01354   0.00679  -0.1587  0.7704  0.3461  -0.8783   0.0000   0.0000   0.0000   0.5846
  -1.900   0.4905   0.01346   0.00673  -0.1589  0.7692  0.3655  -0.8355   0.0000   0.0000   0.0000   0.5764
  -1.800   0.5010   0.01343   0.00678  -0.1588  0.7671  0.3836  -0.8194   0.0000   0.0000   0.0000   0.5693
  -1.700   0.5115   0.01342   0.00682  -0.1588  0.7648  0.4022  -0.8264   0.0000   0.0000   0.0000   0.5624
  -1.600   0.5228   0.01335   0.00681  -0.1588  0.7630  0.4214  -0.8341   0.0000   0.0000   0.0000   0.5556
  -1.400   0.5465   0.01319   0.00673  -0.1590  0.7602  0.4620  -0.8504   0.0000   0.0000   0.0000   0.5423
  -1.300   0.5587   0.01310   0.00668  -0.1592  0.7590  0.4842  -0.8589   0.0000   0.0000   0.0000   0.5360
  -1.200   0.5683   0.01311   0.00677  -0.1590  0.7562  0.5062  -0.8654   0.0000   0.0000   0.0000   0.5306
  -1.100   0.5789   0.01306   0.00680  -0.1589  0.7540  0.5295  -0.8728   0.0000   0.0000   0.0000   0.5251
  -1.000   0.5902   0.01298   0.00679  -0.1588  0.7522  0.5551  -0.8818   0.0000   0.0000   0.0000   0.5196
  -0.900   0.6017   0.01289   0.00676  -0.1588  0.7507  0.5813  -0.8910   0.0000   0.0000   0.0000   0.5142
  -0.800   0.6134   0.01281   0.00673  -0.1588  0.7494  0.6079  -0.9004   0.0000   0.0000   0.0000   0.5089
  -0.700   0.6234   0.01280   0.00680  -0.1585  0.7472  0.6325  -0.9085   0.0000   0.0000   0.0000   0.5042
  -0.600   0.6330   0.01279   0.00688  -0.1582  0.7447  0.6560  -0.9164   0.0000   0.0000   0.0000   0.4996
  -0.500   0.6435   0.01277   0.00690  -0.1579  0.7428  0.6796  -0.9249   0.0000   0.0000   0.0000   0.4950
  -0.400   0.6544   0.01273   0.00690  -0.1577  0.7412  0.7023  -0.9337   0.0000   0.0000   0.0000   0.4904
  -0.300   0.6653   0.01268   0.00688  -0.1575  0.7399  0.7241  -0.9428   0.0000   0.0000   0.0000   0.4859
  -0.200   0.6764   0.01264   0.00685  -0.1573  0.7387  0.7448  -0.9521   0.0000   0.0000   0.0000   0.4815
  -0.100   0.6845   0.01270   0.00698  -0.1567  0.7356  0.7631  -0.9592   0.0000   0.0000   0.0000   0.4777
   0.000   0.6939   0.01270   0.00701  -0.1562  0.7334  0.7807  -0.9674   0.0000   0.0000   0.0000   0.4737
   0.100   0.7039   0.01267   0.00700  -0.1558  0.7317  0.7978  -0.9760   0.0000   0.0000   0.0000   0.4698
   0.200   0.7140   0.01262   0.00696  -0.1553  0.7302  0.8133  -0.9848   0.0000   0.0000   0.0000   0.4659
   0.300   0.7245   0.01258   0.00691  -0.1550  0.7289  0.8286  -0.9938   0.0000   0.0000   0.0000   0.4621
   0.400   0.7320   0.01261   0.00699  -0.1541  0.7262  0.8428  -1.0007   0.0000   0.0000   0.0000   0.4586
   0.500   0.7400   0.01260   0.00701  -0.1534  0.7237  0.8576  -1.0080   0.0000   0.0000   0.0000   0.4551
   0.600   0.7483   0.01255   0.00697  -0.1526  0.7217  0.8726  -1.0157   0.0000   0.0000   0.0000   0.4516
   0.700   0.7568   0.01248   0.00690  -0.1517  0.7201  0.8892  -1.0236   0.0000   0.0000   0.0000   0.4481
   0.800   0.7652   0.01239   0.00680  -0.1509  0.7187  0.9073  -1.0319   0.0000   0.0000   0.0000   0.4446
   0.900   0.7719   0.01237   0.00682  -0.1498  0.7158  0.9295  -1.0396   0.0000   0.0000   0.0000   0.4414
   1.000   0.7834   0.01229   0.00676  -0.1498  0.7132  0.9619  -1.0504   0.0000   0.0000   0.0000   0.4383
   1.100   0.7987   0.01223   0.00667  -0.1506  0.7111  1.0000  -1.0637   0.0000   0.0000   0.0000   0.4356
   1.200   0.8120   0.01222   0.00660  -0.1511  0.7094  1.0000  -1.0758   0.0000   0.0000   0.0000   0.4329
   1.300   0.8256   0.01221   0.00653  -0.1516  0.7080  1.0000  -1.0882   0.0000   0.0000   0.0000   0.4303
   1.400   0.8357   0.01230   0.00663  -0.1515  0.7046  1.0000  -1.0978   0.0000   0.0000   0.0000   0.4279
   1.500   0.8475   0.01233   0.00664  -0.1517  0.7022  1.0000  -1.1090   0.0000   0.0000   0.0000   0.4254
   1.600   0.8600   0.01234   0.00660  -0.1520  0.7002  1.0000  -1.1210   0.0000   0.0000   0.0000   0.4230
   1.700   0.8730   0.01233   0.00655  -0.1524  0.6986  1.0000  -1.1333   0.0000   0.0000   0.0000   0.4207
   1.800   0.8849   0.01236   0.00656  -0.1526  0.6965  1.0000  -1.1449   0.0000   0.0000   0.0000   0.4184
   1.900   0.8952   0.01244   0.00664  -0.1525  0.6934  1.0000  -1.1552   0.0000   0.0000   0.0000   0.4162
   2.000   0.9069   0.01246   0.00664  -0.1527  0.6911  1.0000  -1.1667   0.0000   0.0000   0.0000   0.4140
   2.100   0.9193   0.01246   0.00660  -0.1529  0.6891  1.0000  -1.1790   0.0000   0.0000   0.0000   0.4119
   2.200   0.9321   0.01246   0.00655  -0.1532  0.6875  1.0000  -1.1921   0.0000   0.0000   0.0000   0.4098
   2.300   0.9422   0.01252   0.00663  -0.1531  0.6842  1.0000  -1.2041   0.0000   0.0000   0.0000   0.4077
   2.400   0.9532   0.01255   0.00665  -0.1531  0.6813  1.0000  -1.2172   0.0000   0.0000   0.0000   0.4057
   2.500   0.9652   0.01255   0.00661  -0.1532  0.6790  1.0000  -1.2313   0.0000   0.0000   0.0000   0.4038
   2.600   0.9779   0.01253   0.00655  -0.1535  0.6771  1.0000  -1.2459   0.0000   0.0000   0.0000   0.4018
   2.700   0.9880   0.01258   0.00661  -0.1533  0.6737  1.0000  -1.2584   0.0000   0.0000   0.0000   0.3999
   2.800   0.9988   0.01261   0.00663  -0.1533  0.6706  1.0000  -1.2715   0.0000   0.0000   0.0000   0.3981
   2.900   1.0107   0.01260   0.00659  -0.1534  0.6682  1.0000  -1.2856   0.0000   0.0000   0.0000   0.3962
   3.000   1.0232   0.01259   0.00653  -0.1536  0.6663  1.0000  -1.3003   0.0000   0.0000   0.0000   0.3945
   3.100   1.0329   0.01265   0.00663  -0.1534  0.6627  1.0000  -1.3125   0.0000   0.0000   0.0000   0.3927
   3.200   1.0437   0.01268   0.00665  -0.1534  0.6598  1.0000  -1.3258   0.0000   0.0000   0.0000   0.3910
   3.300   1.0555   0.01269   0.00663  -0.1535  0.6574  1.0000  -1.3399   0.0000   0.0000   0.0000   0.3893
   3.400   1.0680   0.01268   0.00659  -0.1537  0.6555  1.0000  -1.3547   0.0000   0.0000   0.0000   0.3877
   3.500   1.0773   0.01276   0.00669  -0.1535  0.6518  1.0000  -1.3667   0.0000   0.0000   0.0000   0.3861
   3.600   1.0882   0.01279   0.00672  -0.1534  0.6488  1.0000  -1.3801   0.0000   0.0000   0.0000   0.3845
   3.700   1.1001   0.01279   0.00668  -0.1535  0.6464  1.0000  -1.3945   0.0000   0.0000   0.0000   0.3829
   3.800   1.1114   0.01281   0.00669  -0.1536  0.6437  1.0000  -1.4089   0.0000   0.0000   0.0000   0.3814
   3.900   1.1211   0.01287   0.00677  -0.1533  0.6398  1.0000  -1.4217   0.0000   0.0000   0.0000   0.3798
   4.000   1.1323   0.01288   0.00677  -0.1533  0.6368  1.0000  -1.4368   0.0000   0.0000   0.0000   0.3783
   4.100   1.1444   0.01288   0.00672  -0.1535  0.6344  1.0000  -1.4533   0.0000   0.0000   0.0000   0.3769
   4.200   1.1536   0.01295   0.00683  -0.1532  0.6302  1.0000  -1.4672   0.0000   0.0000   0.0000   0.3754
   4.300   1.1643   0.01298   0.00684  -0.1531  0.6268  1.0000  -1.4828   0.0000   0.0000   0.0000   0.3740
   4.400   1.1761   0.01299   0.00681  -0.1532  0.6240  1.0000  -1.4996   0.0000   0.0000   0.0000   0.3726
   4.500   1.1856   0.01306   0.00690  -0.1529  0.6200  1.0000  -1.5143   0.0000   0.0000   0.0000   0.3712
   4.600   1.1960   0.01310   0.00694  -0.1528  0.6164  1.0000  -1.5299   0.0000   0.0000   0.0000   0.3698
   4.700   1.2075   0.01312   0.00693  -0.1528  0.6134  1.0000  -1.5467   0.0000   0.0000   0.0000   0.3685
   4.800   1.2172   0.01319   0.00702  -0.1526  0.6096  1.0000  -1.5626   0.0000   0.0000   0.0000   0.3671
   4.900   1.2274   0.01324   0.00708  -0.1525  0.6058  1.0000  -1.5791   0.0000   0.0000   0.0000   0.3658
   5.000   1.2386   0.01328   0.00708  -0.1525  0.6028  1.0000  -1.5968   0.0000   0.0000   0.0000   0.3646
   5.100   1.2484   0.01335   0.00716  -0.1522  0.5989  1.0000  -1.6129   0.0000   0.0000   0.0000   0.3633
   5.200   1.2584   0.01342   0.00723  -0.1521  0.5950  1.0000  -1.6294   0.0000   0.0000   0.0000   0.3620
   5.300   1.2695   0.01346   0.00724  -0.1520  0.5918  1.0000  -1.6477   0.0000   0.0000   0.0000   0.3608
   5.400   1.2790   0.01354   0.00734  -0.1518  0.5876  1.0000  -1.6660   0.0000   0.0000   0.0000   0.3596
   5.500   1.2889   0.01361   0.00742  -0.1516  0.5836  1.0000  -1.6850   0.0000   0.0000   0.0000   0.3584
   5.600   1.3000   0.01366   0.00743  -0.1516  0.5803  1.0000  -1.7060   0.0000   0.0000   0.0000   0.3572
   5.700   1.3088   0.01376   0.00756  -0.1512  0.5755  1.0000  -1.7244   0.0000   0.0000   0.0000   0.3560
   5.800   1.3188   0.01382   0.00761  -0.1510  0.5714  1.0000  -1.7443   0.0000   0.0000   0.0000   0.3548
   5.900   1.3287   0.01390   0.00767  -0.1508  0.5671  1.0000  -1.7641   0.0000   0.0000   0.0000   0.3536
   6.000   1.3378   0.01399   0.00777  -0.1505  0.5623  1.0000  -1.7831   0.0000   0.0000   0.0000   0.3525
   6.100   1.3484   0.01406   0.00780  -0.1504  0.5585  1.0000  -1.8038   0.0000   0.0000   0.0000   0.3514
   6.200   1.3568   0.01417   0.00794  -0.1499  0.5533  1.0000  -1.8237   0.0000   0.0000   0.0000   0.3502
   6.300   1.3666   0.01426   0.00801  -0.1497  0.5491  1.0000  -1.8481   0.0000   0.0000   0.0000   0.3491
   6.400   1.3759   0.01436   0.00812  -0.1494  0.5446  1.0000  -1.8723   0.0000   0.0000   0.0000   0.3480
   6.500   1.3849   0.01447   0.00823  -0.1491  0.5399  1.0000  -1.8962   0.0000   0.0000   0.0000   0.3469
   6.600   1.3948   0.01457   0.00829  -0.1489  0.5358  1.0000  -1.9215   0.0000   0.0000   0.0000   0.3458
   6.700   1.4030   0.01469   0.00844  -0.1484  0.5305  1.0000  -1.9445   0.0000   0.0000   0.0000   0.3447
   6.800   1.4125   0.01480   0.00852  -0.1481  0.5262  1.0000  -1.9694   0.0000   0.0000   0.0000   0.3436
   6.900   1.4207   0.01493   0.00867  -0.1477  0.5209  1.0000  -1.9926   0.0000   0.0000   0.0000   0.3426
   7.000   1.4296   0.01505   0.00876  -0.1473  0.5162  1.0000  -2.0170   0.0000   0.0000   0.0000   0.3415
   7.100   1.4379   0.01518   0.00891  -0.1469  0.5110  1.0000  -2.0405   0.0000   0.0000   0.0000   0.3404
   7.200   1.4463   0.01532   0.00903  -0.1464  0.5059  1.0000  -2.0642   0.0000   0.0000   0.0000   0.3394
   7.300   1.4545   0.01546   0.00916  -0.1460  0.5008  1.0000  -2.0878   0.0000   0.0000   0.0000   0.3383
   7.400   1.4624   0.01560   0.00931  -0.1454  0.4954  1.0000  -2.1111   0.0000   0.0000   0.0000   0.3373
   7.500   1.4704   0.01576   0.00945  -0.1450  0.4904  1.0000  -2.1374   0.0000   0.0000   0.0000   0.3362
   7.600   1.4780   0.01591   0.00960  -0.1444  0.4849  1.0000  -2.1669   0.0000   0.0000   0.0000   0.3352
   7.700   1.4859   0.01608   0.00975  -0.1439  0.4800  1.0000  -2.1972   0.0000   0.0000   0.0000   0.3342
   7.800   1.4930   0.01624   0.00992  -0.1433  0.4744  1.0000  -2.2263   0.0000   0.0000   0.0000   0.3331
   7.900   1.5006   0.01642   0.01007  -0.1427  0.4696  1.0000  -2.2563   0.0000   0.0000   0.0000   0.3321
   8.000   1.5073   0.01659   0.01027  -0.1420  0.4639  1.0000  -2.2849   0.0000   0.0000   0.0000   0.3311
   8.100   1.5145   0.01678   0.01043  -0.1414  0.4590  1.0000  -2.3145   0.0000   0.0000   0.0000   0.3300
   8.200   1.5207   0.01696   0.01063  -0.1406  0.4531  1.0000  -2.3424   0.0000   0.0000   0.0000   0.3290
   8.300   1.5272   0.01717   0.01080  -0.1399  0.4480  1.0000  -2.3711   0.0000   0.0000   0.0000   0.3279
   8.400   1.5324   0.01736   0.01101  -0.1390  0.4422  1.0000  -2.3977   0.0000   0.0000   0.0000   0.3269
   8.500   1.5379   0.01757   0.01120  -0.1381  0.4371  1.0000  -2.4249   0.0000   0.0000   0.0000   0.3258
   8.600   1.5428   0.01778   0.01142  -0.1371  0.4313  1.0000  -2.4510   0.0000   0.0000   0.0000   0.3247
   8.700   1.5481   0.01802   0.01163  -0.1362  0.4263  1.0000  -2.4781   0.0000   0.0000   0.0000   0.3236
   8.800   1.5529   0.01826   0.01188  -0.1352  0.4205  1.0000  -2.5040   0.0000   0.0000   0.0000   0.3226
   8.900   1.5579   0.01852   0.01212  -0.1343  0.4155  1.0000  -2.5307   0.0000   0.0000   0.0000   0.3215
   9.000   1.5624   0.01877   0.01239  -0.1333  0.4098  1.0000  -2.5564   0.0000   0.0000   0.0000   0.3205
   9.100   1.5671   0.01905   0.01265  -0.1324  0.4049  1.0000  -2.5841   0.0000   0.0000   0.0000   0.3195
   9.200   1.5714   0.01932   0.01294  -0.1314  0.3993  1.0000  -2.6170   0.0000   0.0000   0.0000   0.3185
   9.300   1.5758   0.01963   0.01321  -0.1305  0.3945  1.0000  -2.6529   0.0000   0.0000   0.0000   0.3174
   9.400   1.5799   0.01992   0.01354  -0.1295  0.3888  1.0000  -2.6894   0.0000   0.0000   0.0000   0.3164
   9.600   1.5881   0.02057   0.01418  -0.1277  0.3786  1.0000  -2.7643   0.0000   0.0000   0.0000   0.3145
   9.700   1.5920   0.02092   0.01450  -0.1267  0.3739  1.0000  -2.8029   0.0000   0.0000   0.0000   0.3135
   9.800   1.5958   0.02127   0.01487  -0.1258  0.3685  1.0000  -2.8415   0.0000   0.0000   0.0000   0.3126
   9.900   1.5993   0.02165   0.01523  -0.1248  0.3636  1.0000  -2.8793   0.0000   0.0000   0.0000   0.3116
  10.000   1.6029   0.02203   0.01564  -0.1239  0.3580  1.0000  -2.9218   0.0000   0.0000   0.0000   0.3107
  10.100   1.6059   0.02245   0.01603  -0.1230  0.3530  1.0000  -2.9693   0.0000   0.0000   0.0000   0.3098
  10.200   1.6092   0.02286   0.01646  -0.1221  0.3473  1.0000  -3.0177   0.0000   0.0000   0.0000   0.3089
  10.300   1.6118   0.02331   0.01689  -0.1211  0.3423  1.0000  -3.0646   0.0000   0.0000   0.0000   0.3079
  10.400   1.6150   0.02375   0.01734  -0.1202  0.3366  1.0000  -3.1131   0.0000   0.0000   0.0000   0.3071
  10.600   1.6205   0.02469   0.01829  -0.1184  0.3260  1.0000  -3.2081   0.0000   0.0000   0.0000   0.3053
  10.700   1.6228   0.02521   0.01877  -0.1175  0.3214  1.0000  -3.2543   0.0000   0.0000   0.0000   0.3045
  10.800   1.6259   0.02569   0.01928  -0.1167  0.3159  1.0000  -3.3036   0.0000   0.0000   0.0000   0.3036
  10.900   1.6281   0.02624   0.01980  -0.1158  0.3114  1.0000  -3.3498   0.0000   0.0000   0.0000   0.3028
  11.000   1.6312   0.02673   0.02032  -0.1150  0.3061  1.0000  -3.3993   0.0000   0.0000   0.0000   0.3020
  11.100   1.6331   0.02730   0.02088  -0.1141  0.3016  1.0000  -3.4452   0.0000   0.0000   0.0000   0.3012
  11.200   1.6361   0.02783   0.02143  -0.1133  0.2963  1.0000  -3.4944   0.0000   0.0000   0.0000   0.3004
  11.300   1.6378   0.02843   0.02201  -0.1125  0.2918  1.0000  -3.5401   0.0000   0.0000   0.0000   0.2996
  11.400   1.6406   0.02898   0.02259  -0.1117  0.2867  1.0000  -3.5893   0.0000   0.0000   0.0000   0.2988
  11.500   1.6423   0.02960   0.02320  -0.1109  0.2822  1.0000  -3.6348   0.0000   0.0000   0.0000   0.2980
  11.600   1.6449   0.03018   0.02380  -0.1102  0.2772  1.0000  -3.6837   0.0000   0.0000   0.0000   0.2973
  11.700   1.6464   0.03083   0.02444  -0.1093  0.2727  1.0000  -3.7290   0.0000   0.0000   0.0000   0.2965
  11.800   1.6486   0.03145   0.02507  -0.1086  0.2680  1.0000  -3.7767   0.0000   0.0000   0.0000   0.2958
  11.900   1.6500   0.03212   0.02573  -0.1078  0.2635  1.0000  -3.8217   0.0000   0.0000   0.0000   0.2950
  12.000   1.6517   0.03278   0.02640  -0.1071  0.2589  1.0000  -3.8683   0.0000   0.0000   0.0000   0.2943
  12.100   1.6529   0.03349   0.02711  -0.1063  0.2543  1.0000  -3.9128   0.0000   0.0000   0.0000   0.2936
  12.200   1.6543   0.03419   0.02782  -0.1055  0.2496  1.0000  -3.9581   0.0000   0.0000   0.0000   0.2929
  12.300   1.6551   0.03494   0.02857  -0.1048  0.2449  1.0000  -4.0017   0.0000   0.0000   0.0000   0.2922
  12.400   1.6562   0.03569   0.02933  -0.1040  0.2401  1.0000  -4.0462   0.0000   0.0000   0.0000   0.2915
  12.500   1.6566   0.03648   0.03012  -0.1033  0.2354  1.0000  -4.0885   0.0000   0.0000   0.0000   0.2908
  12.600   1.6575   0.03725   0.03090  -0.1026  0.2305  1.0000  -4.1325   0.0000   0.0000   0.0000   0.2901
  12.700   1.6576   0.03809   0.03173  -0.1018  0.2258  1.0000  -4.1737   0.0000   0.0000   0.0000   0.2895
  12.800   1.6585   0.03889   0.03254  -0.1012  0.2209  1.0000  -4.2178   0.0000   0.0000   0.0000   0.2888
  12.900   1.6583   0.03978   0.03342  -0.1004  0.2165  1.0000  -4.2578   0.0000   0.0000   0.0000   0.2882
  13.000   1.6591   0.04060   0.03426  -0.0998  0.2116  1.0000  -4.3021   0.0000   0.0000   0.0000   0.2875
  13.100   1.6587   0.04154   0.03518  -0.0991  0.2074  1.0000  -4.3412   0.0000   0.0000   0.0000   0.2869
  13.200   1.6595   0.04238   0.03606  -0.0985  0.2026  1.0000  -4.3855   0.0000   0.0000   0.0000   0.2863
  13.300   1.6589   0.04337   0.03702  -0.0979  0.1985  1.0000  -4.4239   0.0000   0.0000   0.0000   0.2857
  13.400   1.6597   0.04424   0.03792  -0.0973  0.1939  1.0000  -4.4680   0.0000   0.0000   0.0000   0.2852
  13.500   1.6587   0.04527   0.03893  -0.0967  0.1899  1.0000  -4.5055   0.0000   0.0000   0.0000   0.2846
  13.600   1.6594   0.04617   0.03986  -0.0961  0.1854  1.0000  -4.5491   0.0000   0.0000   0.0000   0.2840
  13.700   1.6584   0.04723   0.04091  -0.0955  0.1816  1.0000  -4.5861   0.0000   0.0000   0.0000   0.2835
  13.800   1.6590   0.04817   0.04188  -0.0950  0.1771  1.0000  -4.6295   0.0000   0.0000   0.0000   0.2829
  13.900   1.6579   0.04926   0.04296  -0.0945  0.1733  1.0000  -4.6663   0.0000   0.0000   0.0000   0.2824
  14.000   1.6583   0.05024   0.04396  -0.0940  0.1690  1.0000  -4.7091   0.0000   0.0000   0.0000   0.2819
  14.100   1.6571   0.05137   0.04509  -0.0935  0.1653  1.0000  -4.7454   0.0000   0.0000   0.0000   0.2814
  14.200   1.6573   0.05240   0.04614  -0.0930  0.1611  1.0000  -4.7871   0.0000   0.0000   0.0000   0.2809
  14.300   1.6559   0.05357   0.04730  -0.0926  0.1575  1.0000  -4.8228   0.0000   0.0000   0.0000   0.2804
  14.400   1.6557   0.05465   0.04841  -0.0921  0.1536  1.0000  -4.8629   0.0000   0.0000   0.0000   0.2800
  14.500   1.6544   0.05586   0.04961  -0.0917  0.1501  1.0000  -4.8983   0.0000   0.0000   0.0000   0.2795
  14.600   1.6536   0.05700   0.05076  -0.0913  0.1466  1.0000  -4.9363   0.0000   0.0000   0.0000   0.2791
  14.700   1.6524   0.05821   0.05198  -0.0909  0.1431  1.0000  -4.9721   0.0000   0.0000   0.0000   0.2786
  14.800   1.6510   0.05944   0.05321  -0.0905  0.1399  1.0000  -5.0070   0.0000   0.0000   0.0000   0.2782
  14.900   1.6503   0.06062   0.05441  -0.0902  0.1363  1.0000  -5.0450   0.0000   0.0000   0.0000   0.2778
  15.000   1.6480   0.06197   0.05575  -0.0898  0.1336  1.0000  -5.0762   0.0000   0.0000   0.0000   0.2774
  15.100   1.6479   0.06311   0.05693  -0.0895  0.1300  1.0000  -5.1166   0.0000   0.0000   0.0000   0.2770
  15.200   1.6458   0.06447   0.05829  -0.0892  0.1272  1.0000  -5.1484   0.0000   0.0000   0.0000   0.2767
  15.300   1.6451   0.06570   0.05955  -0.0889  0.1240  1.0000  -5.1858   0.0000   0.0000   0.0000   0.2763
  15.400   1.6435   0.06703   0.06089  -0.0886  0.1211  1.0000  -5.2196   0.0000   0.0000   0.0000   0.2759
  15.500   1.6415   0.06843   0.06229  -0.0884  0.1185  1.0000  -5.2511   0.0000   0.0000   0.0000   0.2756
  15.600   1.6407   0.06969   0.06358  -0.0882  0.1154  1.0000  -5.2884   0.0000   0.0000   0.0000   0.2753
  15.700   1.6381   0.07117   0.06506  -0.0880  0.1131  1.0000  -5.3172   0.0000   0.0000   0.0000   0.2750
  15.800   1.6371   0.07247   0.06639  -0.0878  0.1102  1.0000  -5.3533   0.0000   0.0000   0.0000   0.2747
  15.900   1.6352   0.07389   0.06783  -0.0876  0.1076  1.0000  -5.3849   0.0000   0.0000   0.0000   0.2744
  16.000   1.6320   0.07546   0.06938  -0.0875  0.1057  1.0000  -5.4107   0.0000   0.0000   0.0000   0.2742
  16.100   1.6315   0.07673   0.07071  -0.0873  0.1027  1.0000  -5.4483   0.0000   0.0000   0.0000   0.2739
  16.200   1.6290   0.07824   0.07222  -0.0872  0.1005  1.0000  -5.4772   0.0000   0.0000   0.0000   0.2736
  16.300   1.6264   0.07978   0.07377  -0.0871  0.0984  1.0000  -5.5049   0.0000   0.0000   0.0000   0.2734
  16.400   1.6253   0.08115   0.07518  -0.0870  0.0958  1.0000  -5.5398   0.0000   0.0000   0.0000   0.2732
  16.500   1.6225   0.08274   0.07678  -0.0870  0.0938  1.0000  -5.5664   0.0000   0.0000   0.0000   0.2730
  16.600   1.6202   0.08427   0.07833  -0.0870  0.0917  1.0000  -5.5954   0.0000   0.0000   0.0000   0.2728
  16.700   1.6188   0.08572   0.07982  -0.0870  0.0893  1.0000  -5.6278   0.0000   0.0000   0.0000   0.2726
  16.800   1.6158   0.08737   0.08147  -0.0870  0.0875  1.0000  -5.6532   0.0000   0.0000   0.0000   0.2725
  16.900   1.6135   0.08893   0.08306  -0.0870  0.0855  1.0000  -5.6812   0.0000   0.0000   0.0000   0.2724
  17.000   1.6119   0.09043   0.08460  -0.0871  0.0832  1.0000  -5.7125   0.0000   0.0000   0.0000   0.2722
  17.100   1.6087   0.09213   0.08630  -0.0872  0.0815  1.0000  -5.7367   0.0000   0.0000   0.0000   0.2721
  17.200   1.6061   0.09375   0.08794  -0.0873  0.0797  1.0000  -5.7627   0.0000   0.0000   0.0000   0.2720
  17.300   1.6044   0.09528   0.08952  -0.0874  0.0776  1.0000  -5.7925   0.0000   0.0000   0.0000   0.2719
  17.400   1.6013   0.09699   0.09123  -0.0876  0.0760  1.0000  -5.8162   0.0000   0.0000   0.0000   0.2719
  17.500   1.5977   0.09875   0.09299  -0.0877  0.0746  1.0000  -5.8369   0.0000   0.0000   0.0000   0.2719
  17.600   1.5963   0.10026   0.09456  -0.0879  0.0725  1.0000  -5.8671   0.0000   0.0000   0.0000   0.2718
  17.700   1.5936   0.10195   0.09628  -0.0881  0.0709  1.0000  -5.8914   0.0000   0.0000   0.0000   0.2718
  17.800   1.5898   0.10376   0.09808  -0.0884  0.0696  1.0000  -5.9107   0.0000   0.0000   0.0000   0.2718
  17.900   1.5879   0.10536   0.09973  -0.0886  0.0679  1.0000  -5.9374   0.0000   0.0000   0.0000   0.2718
  18.000   1.5857   0.10702   0.10142  -0.0888  0.0662  1.0000  -5.9628   0.0000   0.0000   0.0000   0.2718
  18.100   1.5825   0.10879   0.10321  -0.0892  0.0649  1.0000  -5.9839   0.0000   0.0000   0.0000   0.2718
  18.200   1.5790   0.11060   0.10501  -0.0895  0.0637  1.0000  -6.0030   0.0000   0.0000   0.0000   0.2719
  18.300   1.5775   0.11219   0.10667  -0.0898  0.0619  1.0000  -6.0298   0.0000   0.0000   0.0000   0.2719
  18.400   1.5750   0.11391   0.10842  -0.0902  0.0605  1.0000  -6.0527   0.0000   0.0000   0.0000   0.2720
  18.500   1.5718   0.11571   0.11022  -0.0906  0.0594  1.0000  -6.0725   0.0000   0.0000   0.0000   0.2721
  18.600   1.5691   0.11746   0.11199  -0.0910  0.0581  1.0000  -6.0931   0.0000   0.0000   0.0000   0.2722
  18.700   1.5672   0.11911   0.11369  -0.0914  0.0566  1.0000  -6.1172   0.0000   0.0000   0.0000   0.2723
  18.800   1.5647   0.12085   0.11546  -0.0918  0.0554  1.0000  -6.1387   0.0000   0.0000   0.0000   0.2724
  18.900   1.5619   0.12263   0.11724  -0.0923  0.0544  1.0000  -6.1646   0.0000   0.0000   0.0000   0.2726
  19.000   1.5592   0.12436   0.11898  -0.0928  0.0533  1.0000  -6.1912   0.0000   0.0000   0.0000   0.2727
  19.100   1.5574   0.12602   0.12071  -0.0932  0.0520  1.0000  -6.2210   0.0000   0.0000   0.0000   0.2728
  19.200   1.5552   0.12773   0.12245  -0.0937  0.0508  1.0000  -6.2496   0.0000   0.0000   0.0000   0.2730
  19.300   1.5527   0.12947   0.12420  -0.0943  0.0499  1.0000  -6.2768   0.0000   0.0000   0.0000   0.2732
  19.400   1.5502   0.13116   0.12587  -0.0948  0.0491  1.0000  -6.3043   0.0000   0.0000   0.0000   0.2733
  19.500   1.5485   0.13284   0.12761  -0.0953  0.0479  1.0000  -6.3325   0.0000   0.0000   0.0000   0.2735
  19.600   1.5467   0.13452   0.12934  -0.0959  0.0468  1.0000  -6.3616   0.0000   0.0000   0.0000   0.2737
  19.700   1.5448   0.13621   0.13105  -0.0965  0.0459  1.0000  -6.3904   0.0000   0.0000   0.0000   0.2739
  19.800   1.5428   0.13788   0.13272  -0.0971  0.0451  1.0000  -6.4199   0.0000   0.0000   0.0000   0.2741
  19.900   1.5412   0.13944   0.13426  -0.0977  0.0444  1.0000  -6.4515   0.0000   0.0000   0.0000   0.2742
  20.000   1.5395   0.14115   0.13604  -0.0983  0.0434  1.0000  -6.4780   0.0000   0.0000   0.0000   0.2745


