xflr5 v6.57

 Calculated polar for: rev_root_140

 1 1 Reynolds number fixed          Mach number fixed         

 xtrf =   1.000 (top)        1.000 (bottom)
 Mach =   0.000     Re =     0.220 e 6     Ncrit =   9.000

  alpha     CL        CD       CDp       Cm    Top Xtr Bot Xtr   Cpmin    Chinge    XCp    
 ------- -------- --------- --------- -------- ------- ------- -------- --------- ---------
  -9.800  -0.0848   0.09588   0.09236  -0.0960  0.9384  0.0597  -1.5875   0.0000   0.0000   0.0000  -0.9662
  -9.700  -0.0821   0.09458   0.09105  -0.0969  0.9355  0.0607  -1.5928   0.0000   0.0000   0.0000  -1.0159
  -9.600  -0.0915   0.09212   0.08859  -0.1008  0.9306  0.0625  -1.7354   0.0000   0.0000   0.0000  -0.9278
  -9.500  -0.0984   0.08956   0.08604  -0.1039  0.9265  0.0629  -1.8469   0.0000   0.0000   0.0000  -0.8760
  -9.400  -0.0903   0.08885   0.08532  -0.1027  0.9243  0.0631  -1.7783   0.0000   0.0000   0.0000  -0.9630
  -9.300  -0.0831   0.08814   0.08459  -0.1019  0.9223  0.0634  -1.7219   0.0000   0.0000   0.0000  -1.0580
  -9.200  -0.0772   0.08741   0.08385  -0.1015  0.9196  0.0638  -1.6793   0.0000   0.0000   0.0000  -1.1513
  -9.100  -0.0723   0.08658   0.08301  -0.1013  0.9169  0.0644  -1.6485   0.0000   0.0000   0.0000  -1.2432
  -9.000  -0.0683   0.08565   0.08207  -0.1014  0.9145  0.0650  -1.6287   0.0000   0.0000   0.0000  -1.3300
  -8.900  -0.0655   0.08461   0.08102  -0.1019  0.9114  0.0658  -1.6207   0.0000   0.0000   0.0000  -1.4040
  -8.800  -0.0641   0.08334   0.07974  -0.1027  0.9088  0.0669  -1.6300   0.0000   0.0000   0.0000  -1.4498
  -8.700  -0.0870   0.07854   0.07497  -0.1110  0.9025  0.0691  -1.9201   0.0000   0.0000   0.0000  -1.0973
  -8.600  -0.0786   0.07809   0.07451  -0.1093  0.9012  0.0693  -1.8440   0.0000   0.0000   0.0000  -1.2195
  -8.500  -0.0713   0.07760   0.07401  -0.1082  0.8991  0.0696  -1.7819   0.0000   0.0000   0.0000  -1.3541
  -8.400  -0.0649   0.07703   0.07343  -0.1075  0.8968  0.0700  -1.7319   0.0000   0.0000   0.0000  -1.5009
  -8.300  -0.0595   0.07633   0.07272  -0.1072  0.8948  0.0705  -1.6946   0.0000   0.0000   0.0000  -1.6527
  -8.200  -0.0550   0.07551   0.07188  -0.1072  0.8929  0.0712  -1.6678   0.0000   0.0000   0.0000  -1.8068
  -8.100  -0.0517   0.07453   0.07091  -0.1077  0.8900  0.0723  -1.6548   0.0000   0.0000   0.0000  -1.9449
  -8.000  -0.0524   0.07287   0.06925  -0.1095  0.8871  0.0740  -1.6866   0.0000   0.0000   0.0000  -1.9503
  -7.800  -0.1205   0.04214   0.03791  -0.1475  0.8741  0.0506  -3.0126   0.0000   0.0000   0.0000  -1.0236
  -7.700  -0.1156   0.04052   0.03621  -0.1486  0.8719  0.0503  -3.0080   0.0000   0.0000   0.0000  -1.0863
  -7.600  -0.1107   0.03859   0.03414  -0.1499  0.8702  0.0499  -3.0228   0.0000   0.0000   0.0000  -1.1578
  -7.500  -0.1070   0.03623   0.03158  -0.1514  0.8678  0.0491  -3.0675   0.0000   0.0000   0.0000  -1.2197
  -7.400  -0.1114   0.02923   0.02329  -0.1553  0.8643  0.0457  -3.4161   0.0000   0.0000   0.0000  -1.1983
  -7.300  -0.1022   0.02815   0.02201  -0.1557  0.8628  0.0458  -3.3947   0.0000   0.0000   0.0000  -1.3318
  -7.200  -0.0923   0.02716   0.02079  -0.1561  0.8615  0.0459  -3.3694   0.0000   0.0000   0.0000  -1.5043
  -7.100  -0.0836   0.02628   0.01985  -0.1562  0.8596  0.0461  -3.3292   0.0000   0.0000   0.0000  -1.6882
  -7.000  -0.0746   0.02563   0.01915  -0.1562  0.8574  0.0464  -3.2802   0.0000   0.0000   0.0000  -1.9212
  -6.900  -0.0646   0.02509   0.01859  -0.1563  0.8558  0.0467  -3.2226   0.0000   0.0000   0.0000  -2.2567
  -6.800  -0.0540   0.02471   0.01820  -0.1564  0.8544  0.0472  -3.1554   0.0000   0.0000   0.0000  -2.7494
  -6.700  -0.0430   0.02432   0.01777  -0.1565  0.8532  0.0479  -3.0904   0.0000   0.0000   0.0000  -3.5143
  -6.600  -0.0328   0.02390   0.01726  -0.1566  0.8515  0.0486  -3.0368   0.0000   0.0000   0.0000  -4.6867
  -6.500  -0.0234   0.02346   0.01672  -0.1566  0.8492  0.0493  -2.9977   0.0000   0.0000   0.0000  -6.6603
  -6.400  -0.0130   0.02294   0.01605  -0.1566  0.8474  0.0499  -2.9608   0.0000   0.0000   0.0000  -12.1867
  -6.300  -0.0020   0.02240   0.01535  -0.1567  0.8459  0.0505  -2.9244   0.0000   0.0000   0.0000  -81.5793
  -6.200   0.0095   0.02189   0.01466  -0.1569  0.8447  0.0510  -2.8865   0.0000   0.0000   0.0000  17.3184
  -6.100   0.0206   0.02137   0.01405  -0.1570  0.8434  0.0514  -2.8431   0.0000   0.0000   0.0000   8.1272
  -6.000   0.0296   0.02100   0.01371  -0.1568  0.8409  0.0520  -2.7929   0.0000   0.0000   0.0000   5.7191
  -5.900   0.0399   0.02068   0.01339  -0.1567  0.8391  0.0526  -2.7381   0.0000   0.0000   0.0000   4.3005
  -5.800   0.0509   0.02037   0.01305  -0.1568  0.8376  0.0533  -2.6831   0.0000   0.0000   0.0000   3.4258
  -5.700   0.0622   0.02005   0.01268  -0.1568  0.8364  0.0541  -2.6290   0.0000   0.0000   0.0000   2.8453
  -5.600   0.0739   0.01972   0.01228  -0.1569  0.8353  0.0551  -2.5769   0.0000   0.0000   0.0000   2.4357
  -5.500   0.0841   0.01950   0.01198  -0.1568  0.8333  0.0562  -2.5303   0.0000   0.0000   0.0000   2.1683
  -5.400   0.0941   0.01922   0.01167  -0.1567  0.8312  0.0573  -2.4815   0.0000   0.0000   0.0000   1.9617
  -5.300   0.1047   0.01896   0.01146  -0.1567  0.8295  0.0585  -2.4216   0.0000   0.0000   0.0000   1.7883
  -5.200   0.1160   0.01874   0.01122  -0.1568  0.8281  0.0599  -2.3634   0.0000   0.0000   0.0000   1.6381
  -5.100   0.1277   0.01849   0.01090  -0.1568  0.8269  0.0616  -2.3131   0.0000   0.0000   0.0000   1.5105
  -5.000   0.1396   0.01819   0.01053  -0.1569  0.8259  0.0631  -2.2703   0.0000   0.0000   0.0000   1.4033
  -4.900   0.1485   0.01798   0.01041  -0.1567  0.8234  0.0645  -2.2250   0.0000   0.0000   0.0000   1.3319
  -4.800   0.1590   0.01779   0.01023  -0.1566  0.8214  0.0663  -2.1785   0.0000   0.0000   0.0000   1.2597
  -4.700   0.1703   0.01759   0.00996  -0.1566  0.8199  0.0686  -2.1358   0.0000   0.0000   0.0000   1.1921
  -4.600   0.1816   0.01729   0.00972  -0.1567  0.8186  0.0709  -2.0863   0.0000   0.0000   0.0000   1.1338
  -4.500   0.1934   0.01708   0.00949  -0.1569  0.8175  0.0739  -2.0371   0.0000   0.0000   0.0000   1.0800
  -4.400   0.2048   0.01686   0.00928  -0.1570  0.8163  0.0772  -1.9883   0.0000   0.0000   0.0000   1.0339
  -4.300   0.2144   0.01679   0.00922  -0.1568  0.8138  0.0811  -1.9427   0.0000   0.0000   0.0000   0.9977
  -4.200   0.2251   0.01663   0.00909  -0.1568  0.8119  0.0851  -1.8934   0.0000   0.0000   0.0000   0.9619
  -4.100   0.2365   0.01646   0.00891  -0.1569  0.8104  0.0902  -1.8443   0.0000   0.0000   0.0000   0.9274
  -4.000   0.2484   0.01630   0.00875  -0.1570  0.8091  0.0958  -1.7966   0.0000   0.0000   0.0000   0.8953
  -3.900   0.2603   0.01610   0.00858  -0.1572  0.8080  0.1017  -1.7500   0.0000   0.0000   0.0000   0.8661
  -3.800   0.2714   0.01596   0.00847  -0.1573  0.8064  0.1083  -1.7052   0.0000   0.0000   0.0000   0.8409
  -3.700   0.2813   0.01588   0.00843  -0.1572  0.8040  0.1153  -1.6624   0.0000   0.0000   0.0000   0.8195
  -3.600   0.2924   0.01576   0.00834  -0.1573  0.8022  0.1236  -1.6165   0.0000   0.0000   0.0000   0.7978
  -3.500   0.3040   0.01563   0.00823  -0.1574  0.8007  0.1332  -1.5688   0.0000   0.0000   0.0000   0.7770
  -3.400   0.3160   0.01550   0.00810  -0.1576  0.7994  0.1446  -1.5202   0.0000   0.0000   0.0000   0.7572
  -3.300   0.3282   0.01534   0.00798  -0.1578  0.7983  0.1564  -1.4706   0.0000   0.0000   0.0000   0.7388
  -3.200   0.3385   0.01528   0.00798  -0.1578  0.7962  0.1684  -1.4250   0.0000   0.0000   0.0000   0.7235
  -3.100   0.3489   0.01523   0.00797  -0.1577  0.7939  0.1817  -1.3797   0.0000   0.0000   0.0000   0.7091
  -3.000   0.3602   0.01512   0.00791  -0.1578  0.7921  0.1954  -1.3323   0.0000   0.0000   0.0000   0.6947
  -2.900   0.3720   0.01500   0.00783  -0.1580  0.7907  0.2096  -1.2837   0.0000   0.0000   0.0000   0.6807
  -2.800   0.3842   0.01489   0.00774  -0.1582  0.7895  0.2247  -1.2347   0.0000   0.0000   0.0000   0.6673
  -2.700   0.3965   0.01477   0.00765  -0.1584  0.7884  0.2397  -1.1853   0.0000   0.0000   0.0000   0.6547
  -2.600   0.4060   0.01478   0.00771  -0.1583  0.7858  0.2537  -1.1425   0.0000   0.0000   0.0000   0.6446
  -2.500   0.4168   0.01474   0.00771  -0.1583  0.7837  0.2687  -1.0972   0.0000   0.0000   0.0000   0.6342
  -2.400   0.4283   0.01465   0.00768  -0.1584  0.7820  0.2843  -1.0534   0.0000   0.0000   0.0000   0.6239
  -2.300   0.4403   0.01457   0.00762  -0.1585  0.7806  0.3016  -1.0100   0.0000   0.0000   0.0000   0.6138
  -2.200   0.4524   0.01447   0.00755  -0.1587  0.7795  0.3190  -0.9663   0.0000   0.0000   0.0000   0.6042
  -2.100   0.4642   0.01440   0.00752  -0.1588  0.7782  0.3374  -0.9237   0.0000   0.0000   0.0000   0.5953
  -2.000   0.4737   0.01442   0.00761  -0.1587  0.7754  0.3545  -0.8860   0.0000   0.0000   0.0000   0.5878
  -1.900   0.4847   0.01437   0.00762  -0.1587  0.7734  0.3733  -0.8457   0.0000   0.0000   0.0000   0.5800
  -1.800   0.4964   0.01429   0.00759  -0.1588  0.7719  0.3924  -0.8146   0.0000   0.0000   0.0000   0.5723
  -1.700   0.5084   0.01421   0.00754  -0.1589  0.7705  0.4126  -0.8228   0.0000   0.0000   0.0000   0.5647
  -1.600   0.5206   0.01411   0.00748  -0.1591  0.7694  0.4329  -0.8311   0.0000   0.0000   0.0000   0.5574
  -1.500   0.5312   0.01409   0.00752  -0.1590  0.7674  0.4529  -0.8383   0.0000   0.0000   0.0000   0.5510
  -1.400   0.5412   0.01408   0.00759  -0.1589  0.7648  0.4728  -0.8450   0.0000   0.0000   0.0000   0.5450
  -1.300   0.5523   0.01402   0.00759  -0.1588  0.7629  0.4957  -0.8527   0.0000   0.0000   0.0000   0.5388
  -1.200   0.5640   0.01393   0.00755  -0.1589  0.7614  0.5200  -0.8608   0.0000   0.0000   0.0000   0.5327
  -1.100   0.5758   0.01383   0.00751  -0.1589  0.7600  0.5460  -0.8695   0.0000   0.0000   0.0000   0.5267
  -1.000   0.5879   0.01372   0.00746  -0.1589  0.7589  0.5728  -0.8790   0.0000   0.0000   0.0000   0.5209
  -0.900   0.5963   0.01376   0.00761  -0.1585  0.7557  0.5969  -0.8859   0.0000   0.0000   0.0000   0.5162
  -0.800   0.6066   0.01372   0.00765  -0.1583  0.7535  0.6227  -0.8943   0.0000   0.0000   0.0000   0.5110
  -0.700   0.6175   0.01366   0.00764  -0.1581  0.7518  0.6478  -0.9031   0.0000   0.0000   0.0000   0.5059
  -0.600   0.6287   0.01359   0.00762  -0.1579  0.7504  0.6725  -0.9122   0.0000   0.0000   0.0000   0.5009
  -0.500   0.6400   0.01352   0.00758  -0.1577  0.7492  0.6963  -0.9214   0.0000   0.0000   0.0000   0.4960
  -0.400   0.6485   0.01358   0.00771  -0.1571  0.7465  0.7175  -0.9285   0.0000   0.0000   0.0000   0.4917
  -0.300   0.6579   0.01360   0.00777  -0.1567  0.7441  0.7389  -0.9364   0.0000   0.0000   0.0000   0.4874
  -0.200   0.6678   0.01357   0.00778  -0.1563  0.7423  0.7587  -0.9449   0.0000   0.0000   0.0000   0.4831
  -0.100   0.6781   0.01352   0.00775  -0.1558  0.7408  0.7775  -0.9537   0.0000   0.0000   0.0000   0.4787
   0.000   0.6887   0.01347   0.00770  -0.1555  0.7395  0.7962  -0.9628   0.0000   0.0000   0.0000   0.4745
   0.100   0.6972   0.01348   0.00774  -0.1548  0.7374  0.8120  -0.9704   0.0000   0.0000   0.0000   0.4706
   0.200   0.7049   0.01352   0.00782  -0.1540  0.7346  0.8277  -0.9773   0.0000   0.0000   0.0000   0.4669
   0.300   0.7135   0.01349   0.00781  -0.1533  0.7326  0.8431  -0.9851   0.0000   0.0000   0.0000   0.4631
   0.400   0.7225   0.01343   0.00775  -0.1526  0.7309  0.8589  -0.9932   0.0000   0.0000   0.0000   0.4594
   0.500   0.7312   0.01335   0.00767  -0.1518  0.7295  0.8746  -1.0013   0.0000   0.0000   0.0000   0.4556
   0.600   0.7389   0.01330   0.00763  -0.1509  0.7277  0.8920  -1.0086   0.0000   0.0000   0.0000   0.4520
   0.700   0.7444   0.01331   0.00769  -0.1496  0.7246  0.9116  -1.0143   0.0000   0.0000   0.0000   0.4486
   0.800   0.7529   0.01323   0.00761  -0.1488  0.7224  0.9363  -1.0222   0.0000   0.0000   0.0000   0.4452
   0.900   0.7684   0.01309   0.00746  -0.1496  0.7207  0.9805  -1.0357   0.0000   0.0000   0.0000   0.4420
   1.000   0.7831   0.01304   0.00735  -0.1503  0.7192  1.0000  -1.0486   0.0000   0.0000   0.0000   0.4390
   1.100   0.7951   0.01308   0.00736  -0.1505  0.7168  1.0000  -1.0597   0.0000   0.0000   0.0000   0.4364
   1.200   0.8061   0.01315   0.00742  -0.1507  0.7138  1.0000  -1.0700   0.0000   0.0000   0.0000   0.4338
   1.300   0.8186   0.01315   0.00739  -0.1510  0.7116  1.0000  -1.0814   0.0000   0.0000   0.0000   0.4311
   1.400   0.8317   0.01313   0.00732  -0.1513  0.7098  1.0000  -1.0935   0.0000   0.0000   0.0000   0.4285
   1.500   0.8452   0.01311   0.00724  -0.1518  0.7084  1.0000  -1.1060   0.0000   0.0000   0.0000   0.4260
   1.600   0.8554   0.01320   0.00733  -0.1517  0.7053  1.0000  -1.1161   0.0000   0.0000   0.0000   0.4237
   1.700   0.8666   0.01324   0.00736  -0.1518  0.7026  1.0000  -1.1271   0.0000   0.0000   0.0000   0.4213
   1.800   0.8789   0.01325   0.00734  -0.1520  0.7006  1.0000  -1.1389   0.0000   0.0000   0.0000   0.4190
   1.900   0.8918   0.01324   0.00728  -0.1523  0.6989  1.0000  -1.1513   0.0000   0.0000   0.0000   0.4167
   2.000   0.9050   0.01322   0.00721  -0.1527  0.6975  1.0000  -1.1639   0.0000   0.0000   0.0000   0.4145
   2.100   0.9139   0.01334   0.00736  -0.1524  0.6938  1.0000  -1.1735   0.0000   0.0000   0.0000   0.4124
   2.200   0.9253   0.01337   0.00737  -0.1525  0.6913  1.0000  -1.1854   0.0000   0.0000   0.0000   0.4103
   2.300   0.9377   0.01336   0.00732  -0.1527  0.6893  1.0000  -1.1992   0.0000   0.0000   0.0000   0.4082
   2.400   0.9507   0.01333   0.00725  -0.1530  0.6876  1.0000  -1.2138   0.0000   0.0000   0.0000   0.4061
   2.500   0.9606   0.01341   0.00734  -0.1529  0.6843  1.0000  -1.2260   0.0000   0.0000   0.0000   0.4042
   2.600   0.9714   0.01344   0.00736  -0.1528  0.6813  1.0000  -1.2391   0.0000   0.0000   0.0000   0.4022
   2.700   0.9835   0.01342   0.00731  -0.1530  0.6789  1.0000  -1.2533   0.0000   0.0000   0.0000   0.4003
   2.800   0.9964   0.01338   0.00723  -0.1532  0.6770  1.0000  -1.2682   0.0000   0.0000   0.0000   0.3984
   2.900   1.0060   0.01345   0.00731  -0.1530  0.6735  1.0000  -1.2803   0.0000   0.0000   0.0000   0.3966
   3.000   1.0168   0.01348   0.00733  -0.1530  0.6704  1.0000  -1.2935   0.0000   0.0000   0.0000   0.3948
   3.100   1.0289   0.01346   0.00728  -0.1531  0.6681  1.0000  -1.3078   0.0000   0.0000   0.0000   0.3930
   3.200   1.0416   0.01344   0.00721  -0.1534  0.6662  1.0000  -1.3227   0.0000   0.0000   0.0000   0.3913
   3.300   1.0508   0.01352   0.00734  -0.1531  0.6625  1.0000  -1.3345   0.0000   0.0000   0.0000   0.3896
   3.400   1.0617   0.01355   0.00736  -0.1530  0.6596  1.0000  -1.3479   0.0000   0.0000   0.0000   0.3879
   3.500   1.0736   0.01354   0.00732  -0.1532  0.6573  1.0000  -1.3622   0.0000   0.0000   0.0000   0.3863
   3.600   1.0863   0.01353   0.00726  -0.1534  0.6553  1.0000  -1.3772   0.0000   0.0000   0.0000   0.3847
   3.700   1.0951   0.01362   0.00739  -0.1530  0.6514  1.0000  -1.3888   0.0000   0.0000   0.0000   0.3831
   3.800   1.1061   0.01364   0.00740  -0.1530  0.6484  1.0000  -1.4028   0.0000   0.0000   0.0000   0.3816
   3.900   1.1182   0.01363   0.00735  -0.1531  0.6460  1.0000  -1.4179   0.0000   0.0000   0.0000   0.3800
   4.000   1.1289   0.01366   0.00739  -0.1531  0.6429  1.0000  -1.4324   0.0000   0.0000   0.0000   0.3785
   4.100   1.1387   0.01371   0.00746  -0.1529  0.6392  1.0000  -1.4468   0.0000   0.0000   0.0000   0.3770
   4.200   1.1502   0.01371   0.00743  -0.1529  0.6363  1.0000  -1.4628   0.0000   0.0000   0.0000   0.3756
   4.300   1.1624   0.01370   0.00738  -0.1530  0.6338  1.0000  -1.4796   0.0000   0.0000   0.0000   0.3742
   4.400   1.1711   0.01379   0.00750  -0.1526  0.6294  1.0000  -1.4935   0.0000   0.0000   0.0000   0.3727
   4.500   1.1821   0.01380   0.00750  -0.1526  0.6261  1.0000  -1.5097   0.0000   0.0000   0.0000   0.3713
   4.600   1.1943   0.01379   0.00745  -0.1527  0.6235  1.0000  -1.5270   0.0000   0.0000   0.0000   0.3700
   4.700   1.2029   0.01388   0.00758  -0.1523  0.6191  1.0000  -1.5410   0.0000   0.0000   0.0000   0.3686
   4.800   1.2136   0.01392   0.00761  -0.1523  0.6156  1.0000  -1.5578   0.0000   0.0000   0.0000   0.3673
   4.900   1.2256   0.01392   0.00757  -0.1524  0.6129  1.0000  -1.5761   0.0000   0.0000   0.0000   0.3660
   5.000   1.2344   0.01401   0.00770  -0.1520  0.6086  1.0000  -1.5913   0.0000   0.0000   0.0000   0.3646
   5.100   1.2449   0.01406   0.00774  -0.1519  0.6050  1.0000  -1.6081   0.0000   0.0000   0.0000   0.3634
   5.200   1.2566   0.01408   0.00772  -0.1520  0.6021  1.0000  -1.6263   0.0000   0.0000   0.0000   0.3621
   5.300   1.2654   0.01418   0.00785  -0.1516  0.5977  1.0000  -1.6422   0.0000   0.0000   0.0000   0.3609
   5.400   1.2757   0.01423   0.00789  -0.1515  0.5940  1.0000  -1.6612   0.0000   0.0000   0.0000   0.3596
   5.500   1.2874   0.01426   0.00789  -0.1515  0.5910  1.0000  -1.6820   0.0000   0.0000   0.0000   0.3585
   5.600   1.2958   0.01436   0.00803  -0.1511  0.5863  1.0000  -1.6999   0.0000   0.0000   0.0000   0.3572
   5.700   1.3061   0.01442   0.00808  -0.1510  0.5825  1.0000  -1.7200   0.0000   0.0000   0.0000   0.3560
   5.800   1.3166   0.01448   0.00812  -0.1508  0.5787  1.0000  -1.7404   0.0000   0.0000   0.0000   0.3549
   5.900   1.3255   0.01457   0.00823  -0.1505  0.5739  1.0000  -1.7590   0.0000   0.0000   0.0000   0.3537
   6.000   1.3361   0.01462   0.00824  -0.1504  0.5701  1.0000  -1.7798   0.0000   0.0000   0.0000   0.3526
   6.100   1.3449   0.01472   0.00836  -0.1500  0.5652  1.0000  -1.7984   0.0000   0.0000   0.0000   0.3514
   6.200   1.3545   0.01480   0.00843  -0.1497  0.5608  1.0000  -1.8194   0.0000   0.0000   0.0000   0.3502
   6.300   1.3644   0.01488   0.00850  -0.1495  0.5565  1.0000  -1.8435   0.0000   0.0000   0.0000   0.3491
   6.400   1.3731   0.01499   0.00863  -0.1491  0.5516  1.0000  -1.8669   0.0000   0.0000   0.0000   0.3480
   6.500   1.3836   0.01507   0.00866  -0.1490  0.5477  1.0000  -1.8928   0.0000   0.0000   0.0000   0.3469
   6.600   1.3917   0.01519   0.00882  -0.1485  0.5426  1.0000  -1.9156   0.0000   0.0000   0.0000   0.3458
   6.700   1.4012   0.01529   0.00890  -0.1482  0.5382  1.0000  -1.9404   0.0000   0.0000   0.0000   0.3447
   6.800   1.4101   0.01540   0.00902  -0.1479  0.5335  1.0000  -1.9644   0.0000   0.0000   0.0000   0.3437
   6.900   1.4187   0.01552   0.00913  -0.1475  0.5285  1.0000  -1.9882   0.0000   0.0000   0.0000   0.3426
   7.000   1.4281   0.01563   0.00922  -0.1472  0.5241  1.0000  -2.0130   0.0000   0.0000   0.0000   0.3415
   7.100   1.4360   0.01577   0.00938  -0.1467  0.5187  1.0000  -2.0360   0.0000   0.0000   0.0000   0.3405
   7.200   1.4455   0.01588   0.00945  -0.1464  0.5143  1.0000  -2.0614   0.0000   0.0000   0.0000   0.3394
   7.300   1.4527   0.01603   0.00963  -0.1458  0.5085  1.0000  -2.0835   0.0000   0.0000   0.0000   0.3383
   7.400   1.4618   0.01616   0.00972  -0.1454  0.5038  1.0000  -2.1084   0.0000   0.0000   0.0000   0.3373
   7.500   1.4689   0.01632   0.00991  -0.1448  0.4981  1.0000  -2.1324   0.0000   0.0000   0.0000   0.3362
   7.600   1.4774   0.01646   0.01001  -0.1444  0.4932  1.0000  -2.1636   0.0000   0.0000   0.0000   0.3352
   7.700   1.4844   0.01662   0.01020  -0.1437  0.4876  1.0000  -2.1924   0.0000   0.0000   0.0000   0.3342
   7.800   1.4924   0.01678   0.01033  -0.1432  0.4826  1.0000  -2.2230   0.0000   0.0000   0.0000   0.3332
   7.900   1.4994   0.01696   0.01052  -0.1426  0.4771  1.0000  -2.2519   0.0000   0.0000   0.0000   0.3321
   8.000   1.5069   0.01713   0.01068  -0.1420  0.4721  1.0000  -2.2819   0.0000   0.0000   0.0000   0.3311
   8.100   1.5136   0.01731   0.01087  -0.1413  0.4666  1.0000  -2.3106   0.0000   0.0000   0.0000   0.3301
   8.200   1.5206   0.01749   0.01104  -0.1407  0.4614  1.0000  -2.3398   0.0000   0.0000   0.0000   0.3290
   8.300   1.5269   0.01769   0.01124  -0.1399  0.4558  1.0000  -2.3680   0.0000   0.0000   0.0000   0.3280
   8.400   1.5332   0.01788   0.01142  -0.1392  0.4504  1.0000  -2.3965   0.0000   0.0000   0.0000   0.3270
   8.500   1.5387   0.01809   0.01163  -0.1383  0.4448  1.0000  -2.4236   0.0000   0.0000   0.0000   0.3259
   8.600   1.5440   0.01830   0.01182  -0.1373  0.4395  1.0000  -2.4505   0.0000   0.0000   0.0000   0.3248
   8.700   1.5488   0.01851   0.01204  -0.1364  0.4339  1.0000  -2.4767   0.0000   0.0000   0.0000   0.3237
   8.800   1.5539   0.01875   0.01226  -0.1354  0.4286  1.0000  -2.5034   0.0000   0.0000   0.0000   0.3227
   8.900   1.5586   0.01899   0.01251  -0.1345  0.4231  1.0000  -2.5294   0.0000   0.0000   0.0000   0.3216
   9.000   1.5634   0.01925   0.01275  -0.1335  0.4178  1.0000  -2.5557   0.0000   0.0000   0.0000   0.3206
   9.100   1.5679   0.01951   0.01302  -0.1325  0.4124  1.0000  -2.5834   0.0000   0.0000   0.0000   0.3195
   9.200   1.5723   0.01979   0.01329  -0.1315  0.4071  1.0000  -2.6166   0.0000   0.0000   0.0000   0.3185
   9.300   1.5766   0.02007   0.01358  -0.1306  0.4018  1.0000  -2.6521   0.0000   0.0000   0.0000   0.3175
   9.400   1.5807   0.02037   0.01387  -0.1296  0.3966  1.0000  -2.6888   0.0000   0.0000   0.0000   0.3165
   9.500   1.5848   0.02068   0.01418  -0.1286  0.3914  1.0000  -2.7253   0.0000   0.0000   0.0000   0.3155
   9.600   1.5887   0.02100   0.01450  -0.1276  0.3862  1.0000  -2.7627   0.0000   0.0000   0.0000   0.3145
   9.700   1.5926   0.02133   0.01483  -0.1267  0.3811  1.0000  -2.8014   0.0000   0.0000   0.0000   0.3135
   9.800   1.5963   0.02168   0.01518  -0.1257  0.3760  1.0000  -2.8397   0.0000   0.0000   0.0000   0.3125
   9.900   1.6001   0.02204   0.01553  -0.1248  0.3710  1.0000  -2.8781   0.0000   0.0000   0.0000   0.3116
  10.000   1.6034   0.02242   0.01592  -0.1238  0.3657  1.0000  -2.9157   0.0000   0.0000   0.0000   0.3106
  10.100   1.6067   0.02281   0.01631  -0.1229  0.3607  1.0000  -2.9641   0.0000   0.0000   0.0000   0.3097
  10.200   1.6097   0.02322   0.01672  -0.1219  0.3552  1.0000  -3.0115   0.0000   0.0000   0.0000   0.3088
  10.300   1.6127   0.02365   0.01714  -0.1210  0.3500  1.0000  -3.0592   0.0000   0.0000   0.0000   0.3079
  10.400   1.6154   0.02409   0.01759  -0.1200  0.3445  1.0000  -3.1061   0.0000   0.0000   0.0000   0.3070
  10.500   1.6181   0.02455   0.01804  -0.1191  0.3393  1.0000  -3.1534   0.0000   0.0000   0.0000   0.3061
  10.600   1.6206   0.02503   0.01852  -0.1181  0.3339  1.0000  -3.2000   0.0000   0.0000   0.0000   0.3052
  10.700   1.6232   0.02551   0.01900  -0.1172  0.3287  1.0000  -3.2472   0.0000   0.0000   0.0000   0.3043
  10.800   1.6255   0.02602   0.01951  -0.1163  0.3236  1.0000  -3.2938   0.0000   0.0000   0.0000   0.3035
  10.900   1.6281   0.02652   0.02002  -0.1154  0.3185  1.0000  -3.3413   0.0000   0.0000   0.0000   0.3026
  11.000   1.6304   0.02706   0.02055  -0.1146  0.3135  1.0000  -3.3880   0.0000   0.0000   0.0000   0.3018
  11.100   1.6328   0.02759   0.02109  -0.1137  0.3087  1.0000  -3.4354   0.0000   0.0000   0.0000   0.3010
  11.200   1.6350   0.02814   0.02164  -0.1129  0.3037  1.0000  -3.4822   0.0000   0.0000   0.0000   0.3001
  11.300   1.6372   0.02871   0.02221  -0.1120  0.2990  1.0000  -3.5290   0.0000   0.0000   0.0000   0.2993
  11.400   1.6393   0.02929   0.02280  -0.1112  0.2940  1.0000  -3.5757   0.0000   0.0000   0.0000   0.2986
  11.500   1.6413   0.02988   0.02339  -0.1104  0.2893  1.0000  -3.6222   0.0000   0.0000   0.0000   0.2978
  11.600   1.6433   0.03049   0.02401  -0.1096  0.2843  1.0000  -3.6688   0.0000   0.0000   0.0000   0.2970
  11.700   1.6450   0.03112   0.02463  -0.1087  0.2798  1.0000  -3.7147   0.0000   0.0000   0.0000   0.2962
  11.800   1.6469   0.03174   0.02528  -0.1080  0.2749  1.0000  -3.7611   0.0000   0.0000   0.0000   0.2955
  11.900   1.6482   0.03241   0.02593  -0.1071  0.2706  1.0000  -3.8059   0.0000   0.0000   0.0000   0.2947
  12.000   1.6499   0.03306   0.02660  -0.1064  0.2657  1.0000  -3.8523   0.0000   0.0000   0.0000   0.2940
  12.100   1.6508   0.03378   0.02730  -0.1056  0.2616  1.0000  -3.8956   0.0000   0.0000   0.0000   0.2933
  12.200   1.6525   0.03445   0.02801  -0.1049  0.2565  1.0000  -3.9419   0.0000   0.0000   0.0000   0.2926
  12.300   1.6529   0.03522   0.02874  -0.1040  0.2524  1.0000  -3.9838   0.0000   0.0000   0.0000   0.2918
  12.400   1.6544   0.03593   0.02950  -0.1033  0.2472  1.0000  -4.0295   0.0000   0.0000   0.0000   0.2912
  12.500   1.6543   0.03674   0.03028  -0.1025  0.2431  1.0000  -4.0699   0.0000   0.0000   0.0000   0.2904
  12.600   1.6555   0.03749   0.03106  -0.1018  0.2378  1.0000  -4.1146   0.0000   0.0000   0.0000   0.2898
  12.700   1.6551   0.03834   0.03189  -0.1010  0.2336  1.0000  -4.1541   0.0000   0.0000   0.0000   0.2891
  12.800   1.6561   0.03913   0.03271  -0.1004  0.2283  1.0000  -4.1982   0.0000   0.0000   0.0000   0.2885
  12.900   1.6557   0.04001   0.03358  -0.0996  0.2239  1.0000  -4.2376   0.0000   0.0000   0.0000   0.2878
  13.000   1.6564   0.04085   0.03444  -0.0990  0.2188  1.0000  -4.2808   0.0000   0.0000   0.0000   0.2872
  13.100   1.6559   0.04177   0.03535  -0.0983  0.2146  1.0000  -4.3200   0.0000   0.0000   0.0000   0.2865
  13.200   1.6564   0.04265   0.03625  -0.0977  0.2097  1.0000  -4.3624   0.0000   0.0000   0.0000   0.2859
  13.300   1.6558   0.04360   0.03720  -0.0970  0.2055  1.0000  -4.4013   0.0000   0.0000   0.0000   0.2853
  13.400   1.6561   0.04452   0.03813  -0.0964  0.2008  1.0000  -4.4430   0.0000   0.0000   0.0000   0.2848
  13.500   1.6554   0.04551   0.03911  -0.0958  0.1968  1.0000  -4.4813   0.0000   0.0000   0.0000   0.2842
  13.600   1.6555   0.04646   0.04008  -0.0952  0.1922  1.0000  -4.5225   0.0000   0.0000   0.0000   0.2836
  13.700   1.6546   0.04750   0.04111  -0.0946  0.1883  1.0000  -4.5600   0.0000   0.0000   0.0000   0.2831
  13.800   1.6547   0.04848   0.04212  -0.0941  0.1838  1.0000  -4.6010   0.0000   0.0000   0.0000   0.2825
  13.900   1.6536   0.04956   0.04320  -0.0935  0.1801  1.0000  -4.6377   0.0000   0.0000   0.0000   0.2820
  14.000   1.6537   0.05057   0.04423  -0.0931  0.1756  1.0000  -4.6789   0.0000   0.0000   0.0000   0.2815
  14.100   1.6525   0.05170   0.04535  -0.0925  0.1720  1.0000  -4.7149   0.0000   0.0000   0.0000   0.2810
  14.200   1.6526   0.05273   0.04641  -0.0921  0.1676  1.0000  -4.7559   0.0000   0.0000   0.0000   0.2805
  14.300   1.6510   0.05392   0.04759  -0.0916  0.1642  1.0000  -4.7903   0.0000   0.0000   0.0000   0.2800
  14.400   1.6510   0.05498   0.04868  -0.0912  0.1599  1.0000  -4.8311   0.0000   0.0000   0.0000   0.2796
  14.500   1.6489   0.05624   0.04992  -0.0907  0.1568  1.0000  -4.8635   0.0000   0.0000   0.0000   0.2791
  14.600   1.6489   0.05732   0.05103  -0.0904  0.1526  1.0000  -4.9040   0.0000   0.0000   0.0000   0.2787
  14.700   1.6469   0.05860   0.05230  -0.0899  0.1495  1.0000  -4.9363   0.0000   0.0000   0.0000   0.2782
  14.800   1.6464   0.05974   0.05347  -0.0896  0.1457  1.0000  -4.9748   0.0000   0.0000   0.0000   0.2778
  14.900   1.6446   0.06103   0.05476  -0.0892  0.1425  1.0000  -5.0079   0.0000   0.0000   0.0000   0.2774
  15.000   1.6435   0.06226   0.05600  -0.0889  0.1392  1.0000  -5.0436   0.0000   0.0000   0.0000   0.2770
  15.100   1.6422   0.06352   0.05728  -0.0885  0.1359  1.0000  -5.0789   0.0000   0.0000   0.0000   0.2766
  15.200   1.6402   0.06487   0.05862  -0.0882  0.1331  1.0000  -5.1105   0.0000   0.0000   0.0000   0.2763
  15.300   1.6396   0.06609   0.05988  -0.0880  0.1296  1.0000  -5.1482   0.0000   0.0000   0.0000   0.2759
  15.400   1.6372   0.06750   0.06128  -0.0877  0.1270  1.0000  -5.1784   0.0000   0.0000   0.0000   0.2756
  15.500   1.6364   0.06875   0.06258  -0.0875  0.1238  1.0000  -5.2149   0.0000   0.0000   0.0000   0.2752
  15.600   1.6346   0.07013   0.06396  -0.0872  0.1211  1.0000  -5.2473   0.0000   0.0000   0.0000   0.2749
  15.700   1.6324   0.07156   0.06539  -0.0870  0.1186  1.0000  -5.2775   0.0000   0.0000   0.0000   0.2746
  15.800   1.6314   0.07286   0.06673  -0.0868  0.1155  1.0000  -5.3131   0.0000   0.0000   0.0000   0.2743
  15.900   1.6288   0.07435   0.06822  -0.0867  0.1132  1.0000  -5.3415   0.0000   0.0000   0.0000   0.2741
  16.000   1.6273   0.07572   0.06962  -0.0865  0.1105  1.0000  -5.3743   0.0000   0.0000   0.0000   0.2738
  16.100   1.6254   0.07715   0.07107  -0.0864  0.1079  1.0000  -5.4058   0.0000   0.0000   0.0000   0.2735
  16.200   1.6223   0.07872   0.07262  -0.0863  0.1060  1.0000  -5.4314   0.0000   0.0000   0.0000   0.2733
  16.300   1.6212   0.08008   0.07403  -0.0862  0.1032  1.0000  -5.4657   0.0000   0.0000   0.0000   0.2730
  16.400   1.6190   0.08160   0.07557  -0.0861  0.1008  1.0000  -5.4949   0.0000   0.0000   0.0000   0.2728
  16.500   1.6158   0.08321   0.07715  -0.0860  0.0990  1.0000  -5.5198   0.0000   0.0000   0.0000   0.2727
  16.600   1.6148   0.08460   0.07862  -0.0860  0.0963  1.0000  -5.5537   0.0000   0.0000   0.0000   0.2724
  16.700   1.6123   0.08617   0.08020  -0.0860  0.0942  1.0000  -5.5814   0.0000   0.0000   0.0000   0.2723
  16.800   1.6093   0.08780   0.08181  -0.0860  0.0924  1.0000  -5.6063   0.0000   0.0000   0.0000   0.2722
  16.900   1.6081   0.08925   0.08332  -0.0861  0.0899  1.0000  -5.6385   0.0000   0.0000   0.0000   0.2720
  17.000   1.6054   0.09087   0.08495  -0.0862  0.0880  1.0000  -5.6648   0.0000   0.0000   0.0000   0.2719
  17.100   1.6023   0.09252   0.08660  -0.0862  0.0863  1.0000  -5.6889   0.0000   0.0000   0.0000   0.2718
  17.200   1.6009   0.09403   0.08818  -0.0863  0.0839  1.0000  -5.7191   0.0000   0.0000   0.0000   0.2716
  17.300   1.5983   0.09566   0.08983  -0.0865  0.0821  1.0000  -5.7449   0.0000   0.0000   0.0000   0.2716
  17.400   1.5947   0.09738   0.09152  -0.0866  0.0807  1.0000  -5.7664   0.0000   0.0000   0.0000   0.2715
  17.500   1.5932   0.09891   0.09312  -0.0868  0.0784  1.0000  -5.7955   0.0000   0.0000   0.0000   0.2714
  17.600   1.5906   0.10058   0.09482  -0.0870  0.0766  1.0000  -5.8204   0.0000   0.0000   0.0000   0.2714
  17.700   1.5873   0.10231   0.09653  -0.0872  0.0752  1.0000  -5.8424   0.0000   0.0000   0.0000   0.2714
  17.800   1.5851   0.10393   0.09820  -0.0874  0.0733  1.0000  -5.8675   0.0000   0.0000   0.0000   0.2714
  17.900   1.5829   0.10559   0.09991  -0.0877  0.0715  1.0000  -5.8927   0.0000   0.0000   0.0000   0.2714
  18.000   1.5798   0.10734   0.10165  -0.0880  0.0701  1.0000  -5.9147   0.0000   0.0000   0.0000   0.2714
  18.100   1.5771   0.10903   0.10335  -0.0882  0.0686  1.0000  -5.9373   0.0000   0.0000   0.0000   0.2715
  18.200   1.5750   0.11069   0.10507  -0.0886  0.0668  1.0000  -5.9615   0.0000   0.0000   0.0000   0.2715
  18.300   1.5725   0.11241   0.10681  -0.0889  0.0654  1.0000  -5.9844   0.0000   0.0000   0.0000   0.2716
  18.400   1.5694   0.11414   0.10852  -0.0893  0.0642  1.0000  -6.0057   0.0000   0.0000   0.0000   0.2716
  18.500   1.5673   0.11581   0.11025  -0.0897  0.0626  1.0000  -6.0280   0.0000   0.0000   0.0000   0.2717
  18.600   1.5651   0.11752   0.11200  -0.0901  0.0610  1.0000  -6.0507   0.0000   0.0000   0.0000   0.2718
  18.700   1.5625   0.11926   0.11375  -0.0905  0.0598  1.0000  -6.0726   0.0000   0.0000   0.0000   0.2719
  18.800   1.5599   0.12092   0.11538  -0.0909  0.0587  1.0000  -6.0953   0.0000   0.0000   0.0000   0.2720
  18.900   1.5579   0.12265   0.11719  -0.0914  0.0572  1.0000  -6.1233   0.0000   0.0000   0.0000   0.2721
  19.000   1.5558   0.12434   0.11892  -0.0919  0.0559  1.0000  -6.1524   0.0000   0.0000   0.0000   0.2723
  19.100   1.5534   0.12605   0.12064  -0.0924  0.0548  1.0000  -6.1811   0.0000   0.0000   0.0000   0.2724
  19.200   1.5513   0.12763   0.12219  -0.0928  0.0538  1.0000  -6.2121   0.0000   0.0000   0.0000   0.2725
  19.300   1.5493   0.12934   0.12399  -0.0933  0.0525  1.0000  -6.2386   0.0000   0.0000   0.0000   0.2727
  19.400   1.5473   0.13105   0.12574  -0.0939  0.0513  1.0000  -6.2669   0.0000   0.0000   0.0000   0.2729
  19.500   1.5455   0.13271   0.12742  -0.0945  0.0503  1.0000  -6.2970   0.0000   0.0000   0.0000   0.2731
  19.600   1.5438   0.13431   0.12900  -0.0950  0.0494  1.0000  -6.3291   0.0000   0.0000   0.0000   0.2732
  19.700   1.5422   0.13592   0.13063  -0.0955  0.0484  1.0000  -6.3586   0.0000   0.0000   0.0000   0.2734
  19.800   1.5405   0.13760   0.13238  -0.0961  0.0473  1.0000  -6.3861   0.0000   0.0000   0.0000   0.2736
  19.900   1.5389   0.13925   0.13406  -0.0968  0.0463  1.0000  -6.4158   0.0000   0.0000   0.0000   0.2738
  20.000   1.5377   0.14082   0.13563  -0.0974  0.0454  1.0000  -6.4489   0.0000   0.0000   0.0000   0.2739


