xflr5 v6.57

 Calculated polar for: rev_root_140

 1 1 Reynolds number fixed          Mach number fixed         

 xtrf =   1.000 (top)        1.000 (bottom)
 Mach =   0.000     Re =     0.100 e 6     Ncrit =   9.000

  alpha     CL        CD       CDp       Cm    Top Xtr Bot Xtr   Cpmin    Chinge    XCp    
 ------- -------- --------- --------- -------- ------- ------- -------- --------- ---------
  -9.600  -0.2380   0.12229   0.11773  -0.0556  0.9782  0.1025  -1.5138   0.0000   0.0000   0.0000  -0.0103
  -9.500  -0.2445   0.12134   0.11680  -0.0588  0.9759  0.1037  -1.5838   0.0000   0.0000   0.0000  -0.0164
  -8.800  -0.0600   0.08968   0.08545  -0.0761  0.9265  0.1259  -1.0733   0.0000   0.0000   0.0000  -1.0782
  -8.700  -0.0681   0.08892   0.08471  -0.0766  0.9245  0.1273  -1.1094   0.0000   0.0000   0.0000  -0.9274
  -8.600  -0.0812   0.08791   0.08372  -0.0782  0.9231  0.1280  -1.1759   0.0000   0.0000   0.0000  -0.7576
  -8.500  -0.2013   0.10789   0.10335  -0.0697  0.9584  0.1192  -1.5398   0.0000   0.0000   0.0000  -0.1251
  -8.400  -0.2159   0.10736   0.10287  -0.0723  0.9543  0.1198  -1.6258   0.0000   0.0000   0.0000  -0.1113
  -8.200  -0.1825   0.10369   0.09915  -0.0714  0.9534  0.1225  -1.4852   0.0000   0.0000   0.0000  -0.1720
  -8.100  -0.1756   0.10234   0.09779  -0.0728  0.9522  0.1246  -1.4723   0.0000   0.0000   0.0000  -0.1963
  -8.000  -0.1800   0.10168   0.09715  -0.0732  0.9488  0.1264  -1.4918   0.0000   0.0000   0.0000  -0.1870
  -7.900  -0.1948   0.10119   0.09670  -0.0754  0.9448  0.1278  -1.5704   0.0000   0.0000   0.0000  -0.1648
  -7.700  -0.1751   0.09809   0.09359  -0.0756  0.9423  0.1299  -1.4980   0.0000   0.0000   0.0000  -0.2123
  -7.600  -0.1654   0.09677   0.09225  -0.0765  0.9413  0.1319  -1.4681   0.0000   0.0000   0.0000  -0.2442
  -7.500  -0.1684   0.09620   0.09170  -0.0761  0.9380  0.1334  -1.4720   0.0000   0.0000   0.0000  -0.2327
  -7.400  -0.1777   0.09539   0.09091  -0.0783  0.9349  0.1358  -1.5267   0.0000   0.0000   0.0000  -0.2196
  -7.300  -0.1955   0.09541   0.09098  -0.0779  0.9297  0.1363  -1.5837   0.0000   0.0000   0.0000  -0.1740
  -6.900  -0.1714   0.09075   0.08631  -0.0783  0.9225  0.1433  -1.5020   0.0000   0.0000   0.0000  -0.2348
  -6.800  -0.1860   0.09038   0.08598  -0.0786  0.9175  0.1446  -1.5499   0.0000   0.0000   0.0000  -0.1977
  -6.700  -0.1926   0.08880   0.08442  -0.0817  0.9139  0.1458  -1.5998   0.0000   0.0000   0.0000  -0.1977
  -6.400  -0.1796   0.08575   0.08136  -0.0829  0.9076  0.1538  -1.5622   0.0000   0.0000   0.0000  -0.2360
  -5.400  -0.1629   0.05352   0.04807  -0.1160  0.8804  0.0977  -2.2548   0.0000   0.0000   0.0000  -0.4876
  -5.300  -0.1538   0.05640   0.05125  -0.1130  0.8787  0.1070  -2.0845   0.0000   0.0000   0.0000  -0.5108
  -5.100  -0.1033   0.04282   0.03599  -0.1282  0.8777  0.0873  -2.4023   0.0000   0.0000   0.0000  -1.0316
  -5.000  -0.0986   0.04199   0.03495  -0.1280  0.8748  0.0877  -2.4041   0.0000   0.0000   0.0000  -1.0907
  -4.900  -0.0838   0.04062   0.03322  -0.1295  0.8730  0.0884  -2.4013   0.0000   0.0000   0.0000  -1.3448
  -4.800  -0.0652   0.03923   0.03137  -0.1315  0.8717  0.0892  -2.3937   0.0000   0.0000   0.0000  -1.8296
  -4.700  -0.0494   0.03852   0.03071  -0.1326  0.8705  0.0902  -2.3379   0.0000   0.0000   0.0000  -2.5179
  -4.600  -0.0310   0.03774   0.02984  -0.1341  0.8696  0.0913  -2.2883   0.0000   0.0000   0.0000  -4.2017
  -4.500  -0.0280   0.03753   0.02956  -0.1332  0.8664  0.0919  -2.2699   0.0000   0.0000   0.0000  -4.6534
  -4.400  -0.0147   0.03694   0.02882  -0.1338  0.8645  0.0932  -2.2362   0.0000   0.0000   0.0000  -9.1441
  -4.300   0.0027   0.03619   0.02782  -0.1351  0.8631  0.0952  -2.2015   0.0000   0.0000   0.0000  52.4806
  -4.200   0.0204   0.03558   0.02712  -0.1364  0.8620  0.0979  -2.1491   0.0000   0.0000   0.0000   7.1107
  -4.100   0.0365   0.03523   0.02674  -0.1374  0.8607  0.1010  -2.0913   0.0000   0.0000   0.0000   4.1193
  -4.000   0.0397   0.03517   0.02655  -0.1364  0.8572  0.1029  -2.0788   0.0000   0.0000   0.0000   3.7764
  -3.900   0.0536   0.03477   0.02613  -0.1371  0.8554  0.1058  -2.0387   0.0000   0.0000   0.0000   2.8729
  -3.800   0.0701   0.03436   0.02568  -0.1380  0.8541  0.1094  -1.9939   0.0000   0.0000   0.0000   2.2695
  -3.700   0.0884   0.03385   0.02511  -0.1393  0.8530  0.1137  -1.9482   0.0000   0.0000   0.0000   1.8636
  -3.600   0.0933   0.03390   0.02516  -0.1385  0.8498  0.1169  -1.9202   0.0000   0.0000   0.0000   1.7710
  -3.500   0.1047   0.03371   0.02493  -0.1388  0.8475  0.1216  -1.8826   0.0000   0.0000   0.0000   1.6067
  -3.400   0.1204   0.03343   0.02457  -0.1396  0.8459  0.1283  -1.8379   0.0000   0.0000   0.0000   1.4355
  -3.300   0.1375   0.03311   0.02428  -0.1407  0.8447  0.1356  -1.7836   0.0000   0.0000   0.0000   1.2952
  -3.200   0.1501   0.03294   0.02417  -0.1411  0.8428  0.1425  -1.7371   0.0000   0.0000   0.0000   1.2099
  -3.100   0.1550   0.03303   0.02427  -0.1404  0.8394  0.1479  -1.7093   0.0000   0.0000   0.0000   1.1748
  -3.000   0.1692   0.03285   0.02413  -0.1410  0.8376  0.1576  -1.6655   0.0000   0.0000   0.0000   1.1005
  -2.900   0.1859   0.03260   0.02392  -0.1420  0.8362  0.1693  -1.6171   0.0000   0.0000   0.0000   1.0290
  -2.800   0.2042   0.03230   0.02363  -0.1432  0.8352  0.1838  -1.5664   0.0000   0.0000   0.0000   0.9645
  -2.700   0.2051   0.03257   0.02395  -0.1420  0.8311  0.1898  -1.5465   0.0000   0.0000   0.0000   0.9551
  -2.600   0.2186   0.03243   0.02383  -0.1425  0.8290  0.2039  -1.5035   0.0000   0.0000   0.0000   0.9136
  -2.500   0.2347   0.03220   0.02370  -0.1434  0.8276  0.2205  -1.4521   0.0000   0.0000   0.0000   0.8715
  -2.400   0.2523   0.03194   0.02353  -0.1445  0.8265  0.2405  -1.3972   0.0000   0.0000   0.0000   0.8321
  -2.300   0.2558   0.03219   0.02382  -0.1437  0.8228  0.2520  -1.3712   0.0000   0.0000   0.0000   0.8206
  -2.200   0.2672   0.03217   0.02387  -0.1439  0.8204  0.2704  -1.3281   0.0000   0.0000   0.0000   0.7968
  -2.100   0.2827   0.03202   0.02380  -0.1447  0.8188  0.2933  -1.2754   0.0000   0.0000   0.0000   0.7693
  -2.000   0.2998   0.03181   0.02369  -0.1457  0.8176  0.3187  -1.2186   0.0000   0.0000   0.0000   0.7426
  -1.800   0.3142   0.03212   0.02414  -0.1450  0.8114  0.3549  -1.1477   0.0000   0.0000   0.0000   0.7171
  -1.700   0.3289   0.03200   0.02411  -0.1455  0.8097  0.3804  -1.0982   0.0000   0.0000   0.0000   0.6978
  -1.600   0.3455   0.03180   0.02401  -0.1463  0.8085  0.4086  -1.0473   0.0000   0.0000   0.0000   0.6784
  -1.500   0.3632   0.03157   0.02388  -0.1473  0.8075  0.4401  -0.9945   0.0000   0.0000   0.0000   0.6597
  -1.400   0.3600   0.03214   0.02451  -0.1456  0.8022  0.4514  -0.9825   0.0000   0.0000   0.0000   0.6583
  -1.300   0.3741   0.03203   0.02451  -0.1460  0.8004  0.4817  -0.9369   0.0000   0.0000   0.0000   0.6438
  -1.200   0.3900   0.03183   0.02444  -0.1465  0.7992  0.5155  -0.8877   0.0000   0.0000   0.0000   0.6289
  -1.100   0.4066   0.03159   0.02433  -0.1471  0.7982  0.5526  -0.8372   0.0000   0.0000   0.0000   0.6145
  -1.000   0.4034   0.03217   0.02500  -0.1453  0.7927  0.5693  -0.8254   0.0000   0.0000   0.0000   0.6128
  -0.900   0.4159   0.03207   0.02503  -0.1452  0.7909  0.6050  -0.7831   0.0000   0.0000   0.0000   0.6014
  -0.800   0.4299   0.03189   0.02497  -0.1451  0.7896  0.6442  -0.7444   0.0000   0.0000   0.0000   0.5896
  -0.700   0.4441   0.03168   0.02486  -0.1449  0.7885  0.6840  -0.7554   0.0000   0.0000   0.0000   0.5780
  -0.600   0.4389   0.03234   0.02559  -0.1428  0.7827  0.7034  -0.7515   0.0000   0.0000   0.0000   0.5768
  -0.500   0.4489   0.03225   0.02558  -0.1419  0.7809  0.7403  -0.7598   0.0000   0.0000   0.0000   0.5675
  -0.400   0.4594   0.03207   0.02546  -0.1410  0.7796  0.7775  -0.7688   0.0000   0.0000   0.0000   0.5579
  -0.300   0.4681   0.03189   0.02533  -0.1397  0.7783  0.8139  -0.7768   0.0000   0.0000   0.0000   0.5492
  -0.200   0.4596   0.03255   0.02606  -0.1369  0.7723  0.8368  -0.7710   0.0000   0.0000   0.0000   0.5485
  -0.100   0.4644   0.03232   0.02589  -0.1349  0.7707  0.8787  -0.7767   0.0000   0.0000   0.0000   0.5408
   0.000   0.4729   0.03189   0.02550  -0.1334  0.7693  0.9721  -0.7846   0.0000   0.0000   0.0000   0.5323
   0.200   0.4903   0.03267   0.02611  -0.1341  0.7616  1.0000  -0.7952   0.0000   0.0000   0.0000   0.5231
   0.300   0.5090   0.03259   0.02594  -0.1353  0.7604  1.0000  -0.8085   0.0000   0.0000   0.0000   0.5153
   0.400   0.5283   0.03246   0.02570  -0.1365  0.7594  1.0000  -0.8227   0.0000   0.0000   0.0000   0.5076
   0.600   0.5414   0.03330   0.02644  -0.1361  0.7515  1.0000  -0.8313   0.0000   0.0000   0.0000   0.5002
   0.700   0.5590   0.03320   0.02626  -0.1369  0.7503  1.0000  -0.8458   0.0000   0.0000   0.0000   0.4936
   0.800   0.5776   0.03303   0.02602  -0.1379  0.7494  1.0000  -0.8612   0.0000   0.0000   0.0000   0.4872
   1.000   0.5890   0.03392   0.02682  -0.1371  0.7412  1.0000  -0.8714   0.0000   0.0000   0.0000   0.4809
   1.100   0.6066   0.03377   0.02660  -0.1379  0.7401  1.0000  -0.8862   0.0000   0.0000   0.0000   0.4752
   1.200   0.6252   0.03355   0.02632  -0.1388  0.7392  1.0000  -0.9020   0.0000   0.0000   0.0000   0.4696
   1.400   0.6359   0.03444   0.02715  -0.1378  0.7308  1.0000  -0.9118   0.0000   0.0000   0.0000   0.4640
   1.500   0.6538   0.03422   0.02687  -0.1385  0.7298  1.0000  -0.9273   0.0000   0.0000   0.0000   0.4590
   1.600   0.6724   0.03394   0.02654  -0.1393  0.7290  1.0000  -0.9437   0.0000   0.0000   0.0000   0.4541
   1.900   0.7004   0.03459   0.02711  -0.1389  0.7195  1.0000  -0.9696   0.0000   0.0000   0.0000   0.4448
   2.000   0.7189   0.03427   0.02675  -0.1396  0.7187  1.0000  -0.9861   0.0000   0.0000   0.0000   0.4405
   2.200   0.7282   0.03525   0.02769  -0.1384  0.7100  1.0000  -0.9963   0.0000   0.0000   0.0000   0.4361
   2.300   0.7460   0.03494   0.02734  -0.1390  0.7091  1.0000  -1.0131   0.0000   0.0000   0.0000   0.4322
   2.400   0.7644   0.03458   0.02695  -0.1396  0.7084  1.0000  -1.0306   0.0000   0.0000   0.0000   0.4284
   2.600   0.7727   0.03563   0.02798  -0.1383  0.6995  1.0000  -1.0416   0.0000   0.0000   0.0000   0.4244
   2.700   0.7906   0.03528   0.02760  -0.1389  0.6987  1.0000  -1.0598   0.0000   0.0000   0.0000   0.4209
   2.800   0.8091   0.03488   0.02717  -0.1395  0.6981  1.0000  -1.0789   0.0000   0.0000   0.0000   0.4175
   2.900   0.8276   0.03451   0.02677  -0.1401  0.6974  1.0000  -1.0981   0.0000   0.0000   0.0000   0.4143
   3.100   0.8349   0.03555   0.02780  -0.1386  0.6883  1.0000  -1.1097   0.0000   0.0000   0.0000   0.4107
   3.200   0.8539   0.03507   0.02730  -0.1392  0.6877  1.0000  -1.1299   0.0000   0.0000   0.0000   0.4076
   3.300   0.8737   0.03457   0.02678  -0.1400  0.6872  1.0000  -1.1507   0.0000   0.0000   0.0000   0.4046
   3.500   0.8809   0.03553   0.02775  -0.1383  0.6779  1.0000  -1.1626   0.0000   0.0000   0.0000   0.4011
   3.600   0.9005   0.03499   0.02718  -0.1390  0.6774  1.0000  -1.1836   0.0000   0.0000   0.0000   0.3983
   3.700   0.9203   0.03444   0.02662  -0.1397  0.6768  1.0000  -1.2048   0.0000   0.0000   0.0000   0.3956
   3.900   0.9280   0.03532   0.02750  -0.1380  0.6677  1.0000  -1.2173   0.0000   0.0000   0.0000   0.3923
   4.000   0.9476   0.03476   0.02693  -0.1387  0.6670  1.0000  -1.2389   0.0000   0.0000   0.0000   0.3897
   4.100   0.9673   0.03418   0.02634  -0.1394  0.6665  1.0000  -1.2608   0.0000   0.0000   0.0000   0.3873
   4.300   0.9748   0.03507   0.02724  -0.1376  0.6573  1.0000  -1.2739   0.0000   0.0000   0.0000   0.3841
   4.400   0.9945   0.03449   0.02666  -0.1383  0.6567  1.0000  -1.2975   0.0000   0.0000   0.0000   0.3819
   4.500   1.0140   0.03389   0.02604  -0.1390  0.6561  1.0000  -1.3211   0.0000   0.0000   0.0000   0.3797
   4.600   1.0338   0.03327   0.02542  -0.1396  0.6556  1.0000  -1.3449   0.0000   0.0000   0.0000   0.3776
   4.800   1.0417   0.03414   0.02632  -0.1380  0.6464  1.0000  -1.3614   0.0000   0.0000   0.0000   0.3746
   4.900   1.0615   0.03350   0.02568  -0.1386  0.6458  1.0000  -1.3862   0.0000   0.0000   0.0000   0.3726
   5.000   1.0818   0.03283   0.02500  -0.1393  0.6452  1.0000  -1.4115   0.0000   0.0000   0.0000   0.3707
   5.200   1.0905   0.03359   0.02579  -0.1376  0.6361  1.0000  -1.4299   0.0000   0.0000   0.0000   0.3679
   5.300   1.1111   0.03287   0.02507  -0.1384  0.6354  1.0000  -1.4571   0.0000   0.0000   0.0000   0.3660
   5.400   1.1318   0.03215   0.02434  -0.1391  0.6346  1.0000  -1.4845   0.0000   0.0000   0.0000   0.3643
   5.600   1.1420   0.03275   0.02500  -0.1375  0.6257  1.0000  -1.5061   0.0000   0.0000   0.0000   0.3615
   5.700   1.1628   0.03202   0.02426  -0.1383  0.6248  1.0000  -1.5343   0.0000   0.0000   0.0000   0.3598
   5.800   1.1844   0.03125   0.02348  -0.1392  0.6239  1.0000  -1.5653   0.0000   0.0000   0.0000   0.3583
   6.000   1.1954   0.03176   0.02404  -0.1376  0.6150  1.0000  -1.5920   0.0000   0.0000   0.0000   0.3556
   6.100   1.2167   0.03102   0.02329  -0.1385  0.6139  1.0000  -1.6243   0.0000   0.0000   0.0000   0.3541
   6.200   1.2389   0.03025   0.02252  -0.1395  0.6129  1.0000  -1.6583   0.0000   0.0000   0.0000   0.3527
   6.300   1.2299   0.03139   0.02372  -0.1371  0.6055  1.0000  -1.6552   0.0000   0.0000   0.0000   0.3515
   6.400   1.2502   0.03072   0.02305  -0.1379  0.6039  1.0000  -1.6871   0.0000   0.0000   0.0000   0.3501
   6.500   1.2721   0.02999   0.02231  -0.1389  0.6026  1.0000  -1.7210   0.0000   0.0000   0.0000   0.3489
   6.700   1.2850   0.03037   0.02275  -0.1375  0.5939  1.0000  -1.7551   0.0000   0.0000   0.0000   0.3464
   6.800   1.3066   0.02968   0.02204  -0.1385  0.5922  1.0000  -1.7933   0.0000   0.0000   0.0000   0.3452
   7.000   1.3215   0.02992   0.02234  -0.1373  0.5836  1.0000  -1.8360   0.0000   0.0000   0.0000   0.3428
   7.100   1.3433   0.02921   0.02162  -0.1383  0.5815  1.0000  -1.8777   0.0000   0.0000   0.0000   0.3417
   7.200   1.3472   0.02952   0.02197  -0.1373  0.5765  1.0000  -1.8944   0.0000   0.0000   0.0000   0.3405
   7.300   1.3600   0.02932   0.02178  -0.1373  0.5726  1.0000  -1.9236   0.0000   0.0000   0.0000   0.3393
   7.400   1.3822   0.02862   0.02105  -0.1384  0.5702  1.0000  -1.9665   0.0000   0.0000   0.0000   0.3384
   7.500   1.3827   0.02911   0.02158  -0.1369  0.5645  1.0000  -1.9786   0.0000   0.0000   0.0000   0.3371
   7.600   1.3986   0.02876   0.02124  -0.1373  0.5609  1.0000  -2.0127   0.0000   0.0000   0.0000   0.3361
   7.700   1.4217   0.02809   0.02052  -0.1386  0.5582  1.0000  -2.0574   0.0000   0.0000   0.0000   0.3352
   7.800   1.4179   0.02876   0.02128  -0.1366  0.5519  1.0000  -2.0633   0.0000   0.0000   0.0000   0.3339
   7.900   1.4376   0.02827   0.02075  -0.1375  0.5486  1.0000  -2.1086   0.0000   0.0000   0.0000   0.3330
   8.000   1.4409   0.02860   0.02113  -0.1363  0.5432  1.0000  -2.1300   0.0000   0.0000   0.0000   0.3319
   8.100   1.4545   0.02842   0.02094  -0.1365  0.5389  1.0000  -2.1700   0.0000   0.0000   0.0000   0.3309
   8.200   1.4672   0.02830   0.02081  -0.1365  0.5345  1.0000  -2.2085   0.0000   0.0000   0.0000   0.3299
   8.400   1.4932   0.02803   0.02053  -0.1366  0.5252  1.0000  -2.2874   0.0000   0.0000   0.0000   0.3280
   8.500   1.4920   0.02853   0.02110  -0.1349  0.5191  1.0000  -2.3018   0.0000   0.0000   0.0000   0.3268
   8.600   1.5118   0.02811   0.02061  -0.1358  0.5148  1.0000  -2.3540   0.0000   0.0000   0.0000   0.3260
   8.700   1.5112   0.02858   0.02116  -0.1341  0.5088  1.0000  -2.3694   0.0000   0.0000   0.0000   0.3248
   8.800   1.5287   0.02827   0.02080  -0.1348  0.5042  1.0000  -2.4180   0.0000   0.0000   0.0000   0.3240
   8.900   1.5293   0.02870   0.02128  -0.1333  0.4983  1.0000  -2.4358   0.0000   0.0000   0.0000   0.3228
   9.000   1.5450   0.02849   0.02102  -0.1337  0.4934  1.0000  -2.4815   0.0000   0.0000   0.0000   0.3220
   9.100   1.5464   0.02888   0.02148  -0.1323  0.4876  1.0000  -2.5008   0.0000   0.0000   0.0000   0.3209
   9.200   1.5610   0.02874   0.02129  -0.1326  0.4825  1.0000  -2.5486   0.0000   0.0000   0.0000   0.3201
   9.300   1.5623   0.02913   0.02173  -0.1312  0.4767  1.0000  -2.5742   0.0000   0.0000   0.0000   0.3190
   9.400   1.5762   0.02902   0.02158  -0.1314  0.4714  1.0000  -2.6297   0.0000   0.0000   0.0000   0.3182
   9.500   1.5768   0.02943   0.02205  -0.1299  0.4656  1.0000  -2.6570   0.0000   0.0000   0.0000   0.3170
   9.600   1.5911   0.02933   0.02188  -0.1302  0.4602  1.0000  -2.7191   0.0000   0.0000   0.0000   0.3162
   9.700   1.5901   0.02978   0.02240  -0.1285  0.4543  1.0000  -2.7428   0.0000   0.0000   0.0000   0.3150
   9.800   1.6054   0.02965   0.02219  -0.1289  0.4488  1.0000  -2.8106   0.0000   0.0000   0.0000   0.3143
   9.900   1.6020   0.03017   0.02279  -0.1268  0.4431  1.0000  -2.8294   0.0000   0.0000   0.0000   0.3131
  10.000   1.6158   0.03012   0.02268  -0.1271  0.4374  1.0000  -2.8953   0.0000   0.0000   0.0000   0.3123
  10.100   1.6123   0.03061   0.02325  -0.1250  0.4319  1.0000  -2.9141   0.0000   0.0000   0.0000   0.3110
  10.200   1.6243   0.03063   0.02320  -0.1250  0.4263  1.0000  -2.9757   0.0000   0.0000   0.0000   0.3103
  10.300   1.6217   0.03112   0.02376  -0.1230  0.4208  1.0000  -2.9970   0.0000   0.0000   0.0000   0.3090
  10.400   1.6321   0.03120   0.02379  -0.1228  0.4152  1.0000  -3.0597   0.0000   0.0000   0.0000   0.3082
  10.500   1.6300   0.03170   0.02434  -0.1210  0.4097  1.0000  -3.0895   0.0000   0.0000   0.0000   0.3070
  10.600   1.6390   0.03183   0.02443  -0.1207  0.4042  1.0000  -3.1586   0.0000   0.0000   0.0000   0.3062
  10.700   1.6375   0.03233   0.02498  -0.1190  0.3988  1.0000  -3.1905   0.0000   0.0000   0.0000   0.3051
  10.800   1.6456   0.03251   0.02511  -0.1185  0.3933  1.0000  -3.2572   0.0000   0.0000   0.0000   0.3042
  10.900   1.6442   0.03302   0.02568  -0.1169  0.3880  1.0000  -3.2897   0.0000   0.0000   0.0000   0.3031
  11.000   1.6517   0.03323   0.02585  -0.1164  0.3826  1.0000  -3.3546   0.0000   0.0000   0.0000   0.3023
  11.100   1.6504   0.03377   0.02644  -0.1148  0.3773  1.0000  -3.3881   0.0000   0.0000   0.0000   0.3012
  11.200   1.6571   0.03401   0.02665  -0.1142  0.3718  1.0000  -3.4509   0.0000   0.0000   0.0000   0.3004
  11.300   1.6557   0.03457   0.02726  -0.1127  0.3665  1.0000  -3.4841   0.0000   0.0000   0.0000   0.2994
  11.400   1.6612   0.03488   0.02753  -0.1120  0.3611  1.0000  -3.5430   0.0000   0.0000   0.0000   0.2985
  11.500   1.6597   0.03546   0.02816  -0.1105  0.3559  1.0000  -3.5761   0.0000   0.0000   0.0000   0.2975
  11.600   1.6639   0.03582   0.02849  -0.1097  0.3505  1.0000  -3.6310   0.0000   0.0000   0.0000   0.2966
  11.700   1.6628   0.03642   0.02913  -0.1083  0.3452  1.0000  -3.6655   0.0000   0.0000   0.0000   0.2957
  11.800   1.6661   0.03683   0.02952  -0.1074  0.3399  1.0000  -3.7173   0.0000   0.0000   0.0000   0.2948
  11.900   1.6650   0.03745   0.03017  -0.1061  0.3347  1.0000  -3.7523   0.0000   0.0000   0.0000   0.2939
  12.000   1.6673   0.03792   0.03063  -0.1052  0.3294  1.0000  -3.8008   0.0000   0.0000   0.0000   0.2930
  12.100   1.6667   0.03854   0.03127  -0.1040  0.3242  1.0000  -3.8379   0.0000   0.0000   0.0000   0.2921
  12.200   1.6684   0.03907   0.03179  -0.1030  0.3190  1.0000  -3.8841   0.0000   0.0000   0.0000   0.2913
  12.300   1.6681   0.03971   0.03245  -0.1019  0.3139  1.0000  -3.9223   0.0000   0.0000   0.0000   0.2904
  12.400   1.6691   0.04029   0.03304  -0.1009  0.3088  1.0000  -3.9662   0.0000   0.0000   0.0000   0.2896
  12.500   1.6689   0.04095   0.03371  -0.0999  0.3036  1.0000  -4.0050   0.0000   0.0000   0.0000   0.2887
  12.600   1.6695   0.04159   0.03435  -0.0989  0.2986  1.0000  -4.0470   0.0000   0.0000   0.0000   0.2879
  12.700   1.6692   0.04228   0.03505  -0.0979  0.2935  1.0000  -4.0859   0.0000   0.0000   0.0000   0.2871
  12.800   1.6693   0.04297   0.03575  -0.0969  0.2886  1.0000  -4.1260   0.0000   0.0000   0.0000   0.2863
  12.900   1.6688   0.04370   0.03649  -0.0959  0.2836  1.0000  -4.1641   0.0000   0.0000   0.0000   0.2855
  13.000   1.6687   0.04443   0.03723  -0.0950  0.2788  1.0000  -4.2033   0.0000   0.0000   0.0000   0.2848
  13.100   1.6681   0.04518   0.03800  -0.0940  0.2739  1.0000  -4.2408   0.0000   0.0000   0.0000   0.2840
  13.200   1.6680   0.04594   0.03875  -0.0932  0.2691  1.0000  -4.2805   0.0000   0.0000   0.0000   0.2833
  13.300   1.6674   0.04672   0.03955  -0.0923  0.2643  1.0000  -4.3178   0.0000   0.0000   0.0000   0.2825
  13.400   1.6673   0.04750   0.04033  -0.0914  0.2596  1.0000  -4.3574   0.0000   0.0000   0.0000   0.2818
  13.500   1.6662   0.04834   0.04118  -0.0905  0.2548  1.0000  -4.3929   0.0000   0.0000   0.0000   0.2811
  13.600   1.6661   0.04914   0.04198  -0.0897  0.2501  1.0000  -4.4324   0.0000   0.0000   0.0000   0.2804
  13.700   1.6645   0.05004   0.04290  -0.0888  0.2455  1.0000  -4.4658   0.0000   0.0000   0.0000   0.2797
  13.800   1.6644   0.05086   0.04372  -0.0881  0.2409  1.0000  -4.5054   0.0000   0.0000   0.0000   0.2790
  13.900   1.6622   0.05184   0.04473  -0.0872  0.2363  1.0000  -4.5361   0.0000   0.0000   0.0000   0.2784
  14.000   1.6622   0.05266   0.04554  -0.0865  0.2318  1.0000  -4.5762   0.0000   0.0000   0.0000   0.2777
  14.100   1.6592   0.05373   0.04665  -0.0857  0.2274  1.0000  -4.6032   0.0000   0.0000   0.0000   0.2771
  14.200   1.6595   0.05454   0.04743  -0.0850  0.2230  1.0000  -4.6449   0.0000   0.0000   0.0000   0.2765
  14.300   1.6557   0.05570   0.04864  -0.0842  0.2187  1.0000  -4.6682   0.0000   0.0000   0.0000   0.2759
  14.400   1.6566   0.05646   0.04936  -0.0835  0.2143  1.0000  -4.7128   0.0000   0.0000   0.0000   0.2752
  14.500   1.6520   0.05774   0.05070  -0.0828  0.2103  1.0000  -4.7318   0.0000   0.0000   0.0000   0.2747
  14.600   1.6537   0.05844   0.05133  -0.0822  0.2059  1.0000  -4.7805   0.0000   0.0000   0.0000   0.2741
  14.700   1.6480   0.05986   0.05285  -0.0815  0.2021  1.0000  -4.7941   0.0000   0.0000   0.0000   0.2736
  14.800   1.6508   0.06046   0.05335  -0.0810  0.1977  1.0000  -4.8485   0.0000   0.0000   0.0000   0.2729
  14.900   1.6442   0.06203   0.05504  -0.0803  0.1940  1.0000  -4.8569   0.0000   0.0000   0.0000   0.2725
  15.000   1.6463   0.06272   0.05565  -0.0798  0.1898  1.0000  -4.9079   0.0000   0.0000   0.0000   0.2719
  15.100   1.6407   0.06425   0.05727  -0.0792  0.1862  1.0000  -4.9204   0.0000   0.0000   0.0000   0.2715
  15.200   1.6403   0.06521   0.05821  -0.0788  0.1823  1.0000  -4.9590   0.0000   0.0000   0.0000   0.2710
  15.300   1.6375   0.06648   0.05951  -0.0783  0.1787  1.0000  -4.9849   0.0000   0.0000   0.0000   0.2705
  15.400   1.6347   0.06774   0.06080  -0.0778  0.1751  1.0000  -5.0112   0.0000   0.0000   0.0000   0.2701
  15.500   1.6348   0.06870   0.06174  -0.0774  0.1714  1.0000  -5.0513   0.0000   0.0000   0.0000   0.2696
  15.600   1.6299   0.07025   0.06337  -0.0770  0.1681  1.0000  -5.0665   0.0000   0.0000   0.0000   0.2693
  15.700   1.6330   0.07088   0.06389  -0.0766  0.1643  1.0000  -5.1218   0.0000   0.0000   0.0000   0.2687
  15.800   1.6262   0.07269   0.06584  -0.0763  0.1612  1.0000  -5.1266   0.0000   0.0000   0.0000   0.2685
  15.900   1.6266   0.07365   0.06676  -0.0759  0.1578  1.0000  -5.1681   0.0000   0.0000   0.0000   0.2680
  16.000   1.6238   0.07504   0.06819  -0.0756  0.1546  1.0000  -5.1921   0.0000   0.0000   0.0000   0.2677
  16.100   1.6207   0.07646   0.06966  -0.0754  0.1515  1.0000  -5.2150   0.0000   0.0000   0.0000   0.2674
  16.200   1.6228   0.07723   0.07035  -0.0750  0.1481  1.0000  -5.2649   0.0000   0.0000   0.0000   0.2669
  16.300   1.6170   0.07904   0.07227  -0.0748  0.1452  1.0000  -5.2726   0.0000   0.0000   0.0000   0.2667
  16.400   1.6194   0.07977   0.07292  -0.0745  0.1419  1.0000  -5.3242   0.0000   0.0000   0.0000   0.2662
  16.500   1.6150   0.08144   0.07467  -0.0744  0.1391  1.0000  -5.3381   0.0000   0.0000   0.0000   0.2660
  16.600   1.6118   0.08293   0.07621  -0.0742  0.1363  1.0000  -5.3591   0.0000   0.0000   0.0000   0.2657
  16.700   1.6147   0.08362   0.07681  -0.0739  0.1331  1.0000  -5.4122   0.0000   0.0000   0.0000   0.2652
  16.800   1.6082   0.08561   0.07893  -0.0739  0.1307  1.0000  -5.4139   0.0000   0.0000   0.0000   0.2652
  16.900   1.6083   0.08667   0.07997  -0.0737  0.1278  1.0000  -5.4525   0.0000   0.0000   0.0000   0.2648
  17.000   1.6071   0.08795   0.08125  -0.0736  0.1251  1.0000  -5.4826   0.0000   0.0000   0.0000   0.2645
  17.100   1.6022   0.08976   0.08315  -0.0736  0.1227  1.0000  -5.4922   0.0000   0.0000   0.0000   0.2645
  17.200   1.6091   0.08988   0.08311  -0.0732  0.1194  1.0000  -5.5673   0.0000   0.0000   0.0000   0.2638
  17.300   1.6006   0.09224   0.08564  -0.0735  0.1175  1.0000  -5.5555   0.0000   0.0000   0.0000   0.2639
  17.400   1.5971   0.09390   0.08736  -0.0735  0.1152  1.0000  -5.5712   0.0000   0.0000   0.0000   0.2638
  17.500   1.6028   0.09417   0.08749  -0.0732  0.1122  1.0000  -5.6397   0.0000   0.0000   0.0000   0.2632
  17.600   1.5950   0.09650   0.08999  -0.0735  0.1104  1.0000  -5.6295   0.0000   0.0000   0.0000   0.2634
  17.700   1.5923   0.09807   0.09160  -0.0736  0.1081  1.0000  -5.6489   0.0000   0.0000   0.0000   0.2633
  17.800   1.5979   0.09837   0.09178  -0.0732  0.1053  1.0000  -5.7154   0.0000   0.0000   0.0000   0.2626
  17.900   1.5901   0.10073   0.09429  -0.0737  0.1036  1.0000  -5.7039   0.0000   0.0000   0.0000   0.2629
  18.000   1.5875   0.10231   0.09592  -0.0739  0.1016  1.0000  -5.7221   0.0000   0.0000   0.0000   0.2628
  18.100   1.5946   0.10238   0.09585  -0.0734  0.0988  1.0000  -5.7958   0.0000   0.0000   0.0000   0.2621
  18.200   1.5863   0.10487   0.09850  -0.0740  0.0974  1.0000  -5.7805   0.0000   0.0000   0.0000   0.2624
  18.300   1.5823   0.10667   0.10038  -0.0743  0.0956  1.0000  -5.7958   0.0000   0.0000   0.0000   0.2625
  18.400   1.5926   0.10622   0.09975  -0.0736  0.0926  1.0000  -5.9051   0.0000   0.0000   0.0000   0.2615
  18.500   1.5832   0.10891   0.10261  -0.0744  0.0915  1.0000  -5.8833   0.0000   0.0000   0.0000   0.2620
  18.600   1.5772   0.11111   0.10492  -0.0749  0.0901  1.0000  -5.8828   0.0000   0.0000   0.0000   0.2623
  18.700   1.5784   0.11212   0.10592  -0.0750  0.0881  1.0000  -5.9312   0.0000   0.0000   0.0000   0.2621
  18.800   1.5826   0.11264   0.10638  -0.0748  0.0860  1.0000  -5.9990   0.0000   0.0000   0.0000   0.2615
  18.900   1.5745   0.11524   0.10913  -0.0756  0.0849  1.0000  -5.9815   0.0000   0.0000   0.0000   0.2621
  19.000   1.5698   0.11728   0.11126  -0.0762  0.0836  1.0000  -5.9874   0.0000   0.0000   0.0000   0.2623
  19.100   1.5788   0.11697   0.11082  -0.0756  0.0812  1.0000  -6.0893   0.0000   0.0000   0.0000   0.2614
  19.200   1.5756   0.11878   0.11270  -0.0761  0.0799  1.0000  -6.1041   0.0000   0.0000   0.0000   0.2616
  19.300   1.5673   0.12148   0.11554  -0.0771  0.0790  1.0000  -6.0827   0.0000   0.0000   0.0000   0.2622
  19.400   1.5615   0.12376   0.11794  -0.0780  0.0779  1.0000  -6.0787   0.0000   0.0000   0.0000   0.2627
  19.500   1.5636   0.12464   0.11879  -0.0781  0.0763  1.0000  -6.1321   0.0000   0.0000   0.0000   0.2625
  19.600   1.5704   0.12472   0.11878  -0.0777  0.0744  1.0000  -6.2178   0.0000   0.0000   0.0000   0.2617
  19.700   1.5609   0.12769   0.12191  -0.0790  0.0738  1.0000  -6.1853   0.0000   0.0000   0.0000   0.2626
  19.800   1.5529   0.13046   0.12481  -0.0802  0.0730  1.0000  -6.1616   0.0000   0.0000   0.0000   0.2634
  19.900   1.5469   0.13286   0.12731  -0.0813  0.0722  1.0000  -6.1527   0.0000   0.0000   0.0000   0.2640
  20.000   1.5483   0.13391   0.12836  -0.0816  0.0708  1.0000  -6.1988   0.0000   0.0000   0.0000   0.2639


