xflr5 v6.57

 Calculated polar for: rev_root_140

 1 1 Reynolds number fixed          Mach number fixed         

 xtrf =   1.000 (top)        1.000 (bottom)
 Mach =   0.000     Re =     0.640 e 6     Ncrit =   9.000

  alpha     CL        CD       CDp       Cm    Top Xtr Bot Xtr   Cpmin    Chinge    XCp    
 ------- -------- --------- --------- -------- ------- ------- -------- --------- ---------
 -10.000  -0.3979   0.02363   0.01905  -0.1468  0.8288  0.0207  -6.2775   0.0000   0.0000   0.0000  -0.1418
  -9.900  -0.3883   0.02324   0.01861  -0.1470  0.8272  0.0208  -6.1832   0.0000   0.0000   0.0000  -0.1518
  -9.800  -0.3785   0.02287   0.01819  -0.1473  0.8258  0.0210  -6.0882   0.0000   0.0000   0.0000  -0.1626
  -9.700  -0.3686   0.02252   0.01780  -0.1476  0.8239  0.0212  -5.9930   0.0000   0.0000   0.0000  -0.1740
  -9.600  -0.3587   0.02218   0.01742  -0.1478  0.8220  0.0215  -5.8980   0.0000   0.0000   0.0000  -0.1860
  -9.500  -0.3487   0.02181   0.01699  -0.1481  0.8203  0.0217  -5.8067   0.0000   0.0000   0.0000  -0.1988
  -9.400  -0.3388   0.02140   0.01651  -0.1483  0.8188  0.0219  -5.7191   0.0000   0.0000   0.0000  -0.2124
  -9.300  -0.3288   0.02096   0.01599  -0.1486  0.8174  0.0222  -5.6348   0.0000   0.0000   0.0000  -0.2268
  -9.200  -0.3188   0.02050   0.01545  -0.1488  0.8159  0.0224  -5.5530   0.0000   0.0000   0.0000  -0.2422
  -9.100  -0.3087   0.02003   0.01489  -0.1491  0.8141  0.0226  -5.4729   0.0000   0.0000   0.0000  -0.2586
  -9.000  -0.2986   0.01958   0.01436  -0.1493  0.8124  0.0228  -5.3920   0.0000   0.0000   0.0000  -0.2762
  -8.900  -0.2882   0.01918   0.01387  -0.1495  0.8109  0.0229  -5.3093   0.0000   0.0000   0.0000  -0.2954
  -8.800  -0.2777   0.01882   0.01343  -0.1497  0.8094  0.0231  -5.2245   0.0000   0.0000   0.0000  -0.3163
  -8.700  -0.2670   0.01851   0.01303  -0.1498  0.8082  0.0233  -5.1375   0.0000   0.0000   0.0000  -0.3391
  -8.600  -0.2562   0.01826   0.01269  -0.1500  0.8068  0.0234  -5.0483   0.0000   0.0000   0.0000  -0.3642
  -8.500  -0.2467   0.01746   0.01183  -0.1502  0.8051  0.0236  -4.9832   0.0000   0.0000   0.0000  -0.3882
  -8.400  -0.2366   0.01695   0.01130  -0.1504  0.8035  0.0239  -4.9017   0.0000   0.0000   0.0000  -0.4156
  -8.300  -0.2261   0.01662   0.01095  -0.1505  0.8020  0.0241  -4.8139   0.0000   0.0000   0.0000  -0.4468
  -8.200  -0.2153   0.01636   0.01066  -0.1506  0.8006  0.0243  -4.7284   0.0000   0.0000   0.0000  -0.4818
  -8.100  -0.2044   0.01613   0.01041  -0.1508  0.7994  0.0246  -4.6423   0.0000   0.0000   0.0000  -0.5210
  -8.000  -0.1934   0.01591   0.01015  -0.1509  0.7982  0.0248  -4.5567   0.0000   0.0000   0.0000  -0.5649
  -7.900  -0.1824   0.01569   0.00991  -0.1510  0.7968  0.0250  -4.4725   0.0000   0.0000   0.0000  -0.6140
  -7.800  -0.1715   0.01547   0.00967  -0.1511  0.7952  0.0253  -4.3895   0.0000   0.0000   0.0000  -0.6693
  -7.700  -0.1604   0.01525   0.00942  -0.1513  0.7938  0.0256  -4.3073   0.0000   0.0000   0.0000  -0.7326
  -7.600  -0.1493   0.01505   0.00918  -0.1514  0.7924  0.0259  -4.2250   0.0000   0.0000   0.0000  -0.8056
  -7.500  -0.1382   0.01486   0.00895  -0.1515  0.7911  0.0262  -4.1428   0.0000   0.0000   0.0000  -0.8909
  -7.400  -0.1270   0.01468   0.00872  -0.1516  0.7898  0.0265  -4.0611   0.0000   0.0000   0.0000  -0.9917
  -7.300  -0.1157   0.01452   0.00851  -0.1517  0.7887  0.0268  -3.9859   0.0000   0.0000   0.0000  -1.1130
  -7.200  -0.1044   0.01436   0.00831  -0.1518  0.7872  0.0271  -3.9130   0.0000   0.0000   0.0000  -1.2596
  -7.100  -0.0932   0.01422   0.00813  -0.1519  0.7856  0.0273  -3.8401   0.0000   0.0000   0.0000  -1.4418
  -7.000  -0.0825   0.01380   0.00769  -0.1520  0.7840  0.0276  -3.7789   0.0000   0.0000   0.0000  -1.6600
  -6.900  -0.0716   0.01351   0.00739  -0.1521  0.7825  0.0280  -3.7097   0.0000   0.0000   0.0000  -1.9520
  -6.800  -0.0604   0.01331   0.00718  -0.1522  0.7811  0.0283  -3.6365   0.0000   0.0000   0.0000  -2.3590
  -6.700  -0.0492   0.01314   0.00699  -0.1524  0.7799  0.0286  -3.5624   0.0000   0.0000   0.0000  -2.9583
  -6.600  -0.0378   0.01299   0.00682  -0.1525  0.7788  0.0289  -3.4885   0.0000   0.0000   0.0000  -3.9252
  -6.500  -0.0265   0.01284   0.00666  -0.1526  0.7774  0.0293  -3.4160   0.0000   0.0000   0.0000  -5.7011
  -6.400  -0.0152   0.01269   0.00650  -0.1527  0.7759  0.0297  -3.3445   0.0000   0.0000   0.0000  -10.1126
  -6.300  -0.0039   0.01254   0.00633  -0.1528  0.7744  0.0301  -3.2737   0.0000   0.0000   0.0000  -40.3748
  -6.200   0.0075   0.01240   0.00617  -0.1529  0.7730  0.0305  -3.2035   0.0000   0.0000   0.0000  21.2649
  -6.100   0.0190   0.01228   0.00601  -0.1530  0.7717  0.0309  -3.1333   0.0000   0.0000   0.0000   8.5708
  -6.000   0.0305   0.01218   0.00587  -0.1530  0.7705  0.0313  -3.0626   0.0000   0.0000   0.0000   5.4254
  -5.900   0.0419   0.01200   0.00566  -0.1532  0.7693  0.0318  -2.9949   0.0000   0.0000   0.0000   4.0150
  -5.800   0.0532   0.01178   0.00545  -0.1533  0.7681  0.0324  -2.9268   0.0000   0.0000   0.0000   3.2177
  -5.700   0.0645   0.01164   0.00531  -0.1535  0.7666  0.0329  -2.8563   0.0000   0.0000   0.0000   2.6966
  -5.600   0.0760   0.01152   0.00519  -0.1536  0.7652  0.0335  -2.7863   0.0000   0.0000   0.0000   2.3286
  -5.500   0.0875   0.01141   0.00506  -0.1537  0.7638  0.0341  -2.7178   0.0000   0.0000   0.0000   2.0557
  -5.400   0.0990   0.01130   0.00493  -0.1538  0.7625  0.0348  -2.6503   0.0000   0.0000   0.0000   1.8454
  -5.300   0.1106   0.01120   0.00480  -0.1539  0.7612  0.0355  -2.5893   0.0000   0.0000   0.0000   1.6782
  -5.200   0.1222   0.01110   0.00467  -0.1540  0.7601  0.0361  -2.5303   0.0000   0.0000   0.0000   1.5425
  -5.100   0.1338   0.01090   0.00447  -0.1542  0.7590  0.0371  -2.4723   0.0000   0.0000   0.0000   1.4314
  -5.000   0.1452   0.01079   0.00436  -0.1543  0.7576  0.0381  -2.4120   0.0000   0.0000   0.0000   1.3386
  -4.900   0.1567   0.01069   0.00426  -0.1544  0.7560  0.0393  -2.3527   0.0000   0.0000   0.0000   1.2588
  -4.800   0.1683   0.01060   0.00415  -0.1545  0.7546  0.0406  -2.2946   0.0000   0.0000   0.0000   1.1895
  -4.700   0.1798   0.01044   0.00400  -0.1546  0.7532  0.0423  -2.2376   0.0000   0.0000   0.0000   1.1295
  -4.600   0.1914   0.01034   0.00390  -0.1547  0.7518  0.0442  -2.1783   0.0000   0.0000   0.0000   1.0763
  -4.500   0.2031   0.01024   0.00379  -0.1548  0.7505  0.0466  -2.1208   0.0000   0.0000   0.0000   1.0291
  -4.400   0.2148   0.01015   0.00369  -0.1550  0.7494  0.0495  -2.0616   0.0000   0.0000   0.0000   0.9869
  -4.300   0.2263   0.01006   0.00361  -0.1551  0.7480  0.0527  -2.0040   0.0000   0.0000   0.0000   0.9494
  -4.200   0.2378   0.00998   0.00354  -0.1552  0.7463  0.0563  -1.9474   0.0000   0.0000   0.0000   0.9156
  -4.100   0.2493   0.00988   0.00346  -0.1553  0.7447  0.0599  -1.8952   0.0000   0.0000   0.0000   0.8849
  -4.000   0.2609   0.00981   0.00338  -0.1554  0.7432  0.0639  -1.8430   0.0000   0.0000   0.0000   0.8568
  -3.900   0.2725   0.00973   0.00331  -0.1555  0.7418  0.0681  -1.7903   0.0000   0.0000   0.0000   0.8310
  -3.800   0.2842   0.00964   0.00323  -0.1556  0.7405  0.0727  -1.7376   0.0000   0.0000   0.0000   0.8073
  -3.700   0.2959   0.00957   0.00316  -0.1558  0.7393  0.0777  -1.6848   0.0000   0.0000   0.0000   0.7854
  -3.600   0.3075   0.00950   0.00311  -0.1559  0.7380  0.0833  -1.6324   0.0000   0.0000   0.0000   0.7653
  -3.500   0.3190   0.00943   0.00306  -0.1560  0.7364  0.0896  -1.5805   0.0000   0.0000   0.0000   0.7468
  -3.300   0.3421   0.00929   0.00297  -0.1562  0.7333  0.1037  -1.4771   0.0000   0.0000   0.0000   0.7133
  -3.200   0.3537   0.00922   0.00292  -0.1563  0.7319  0.1114  -1.4257   0.0000   0.0000   0.0000   0.6982
  -3.100   0.3654   0.00916   0.00287  -0.1565  0.7306  0.1202  -1.3746   0.0000   0.0000   0.0000   0.6840
  -3.000   0.3771   0.00910   0.00283  -0.1566  0.7295  0.1297  -1.3237   0.0000   0.0000   0.0000   0.6706
  -2.900   0.3888   0.00905   0.00280  -0.1567  0.7282  0.1395  -1.2732   0.0000   0.0000   0.0000   0.6581
  -2.800   0.4002   0.00898   0.00277  -0.1568  0.7266  0.1493  -1.2238   0.0000   0.0000   0.0000   0.6464
  -2.700   0.4117   0.00892   0.00275  -0.1569  0.7249  0.1596  -1.1746   0.0000   0.0000   0.0000   0.6354
  -2.600   0.4233   0.00886   0.00272  -0.1570  0.7232  0.1706  -1.1258   0.0000   0.0000   0.0000   0.6249
  -2.500   0.4349   0.00881   0.00269  -0.1572  0.7216  0.1820  -1.0773   0.0000   0.0000   0.0000   0.6149
  -2.400   0.4465   0.00876   0.00266  -0.1573  0.7202  0.1939  -1.0321   0.0000   0.0000   0.0000   0.6055
  -2.300   0.4582   0.00871   0.00263  -0.1574  0.7188  0.2061  -0.9883   0.0000   0.0000   0.0000   0.5965
  -2.200   0.4698   0.00865   0.00261  -0.1575  0.7172  0.2188  -0.9452   0.0000   0.0000   0.0000   0.5880
  -2.100   0.4812   0.00860   0.00260  -0.1576  0.7153  0.2318  -0.9027   0.0000   0.0000   0.0000   0.5800
  -2.000   0.4927   0.00855   0.00258  -0.1577  0.7135  0.2442  -0.8605   0.0000   0.0000   0.0000   0.5722
  -1.900   0.5043   0.00850   0.00256  -0.1578  0.7119  0.2557  -0.8305   0.0000   0.0000   0.0000   0.5648
  -1.800   0.5159   0.00846   0.00254  -0.1579  0.7104  0.2678  -0.8385   0.0000   0.0000   0.0000   0.5578
  -1.700   0.5276   0.00842   0.00253  -0.1581  0.7090  0.2808  -0.8465   0.0000   0.0000   0.0000   0.5510
  -1.600   0.5393   0.00840   0.00252  -0.1582  0.7077  0.2947  -0.8545   0.0000   0.0000   0.0000   0.5445
  -1.500   0.5508   0.00835   0.00252  -0.1583  0.7059  0.3085  -0.8624   0.0000   0.0000   0.0000   0.5384
  -1.400   0.5622   0.00830   0.00251  -0.1584  0.7041  0.3225  -0.8703   0.0000   0.0000   0.0000   0.5325
  -1.300   0.5738   0.00826   0.00251  -0.1585  0.7024  0.3382  -0.8783   0.0000   0.0000   0.0000   0.5268
  -1.200   0.5854   0.00821   0.00250  -0.1586  0.7007  0.3547  -0.8863   0.0000   0.0000   0.0000   0.5213
  -1.100   0.5970   0.00817   0.00249  -0.1587  0.6992  0.3717  -0.8943   0.0000   0.0000   0.0000   0.5160
  -1.000   0.6087   0.00815   0.00249  -0.1589  0.6978  0.3883  -0.9025   0.0000   0.0000   0.0000   0.5109
  -0.900   0.6202   0.00810   0.00249  -0.1590  0.6961  0.4045  -0.9112   0.0000   0.0000   0.0000   0.5061
  -0.800   0.6316   0.00806   0.00250  -0.1590  0.6941  0.4207  -0.9203   0.0000   0.0000   0.0000   0.5014
  -0.700   0.6431   0.00802   0.00250  -0.1591  0.6922  0.4375  -0.9294   0.0000   0.0000   0.0000   0.4969
  -0.600   0.6546   0.00798   0.00250  -0.1592  0.6904  0.4553  -0.9386   0.0000   0.0000   0.0000   0.4925
  -0.500   0.6662   0.00794   0.00250  -0.1593  0.6887  0.4742  -0.9478   0.0000   0.0000   0.0000   0.4882
  -0.300   0.6891   0.00787   0.00252  -0.1595  0.6848  0.5118  -0.9664   0.0000   0.0000   0.0000   0.4802
  -0.200   0.7005   0.00782   0.00253  -0.1596  0.6826  0.5330  -0.9758   0.0000   0.0000   0.0000   0.4764
  -0.100   0.7119   0.00777   0.00254  -0.1596  0.6804  0.5559  -0.9852   0.0000   0.0000   0.0000   0.4727
   0.000   0.7233   0.00773   0.00255  -0.1597  0.6786  0.5783  -0.9946   0.0000   0.0000   0.0000   0.4690
   0.100   0.7347   0.00771   0.00256  -0.1598  0.6769  0.6009  -1.0041   0.0000   0.0000   0.0000   0.4655
   0.200   0.7460   0.00767   0.00258  -0.1598  0.6749  0.6222  -1.0135   0.0000   0.0000   0.0000   0.4621
   0.300   0.7573   0.00764   0.00261  -0.1598  0.6727  0.6423  -1.0228   0.0000   0.0000   0.0000   0.4588
   0.400   0.7685   0.00761   0.00263  -0.1598  0.6706  0.6635  -1.0322   0.0000   0.0000   0.0000   0.4556
   0.500   0.7797   0.00759   0.00265  -0.1598  0.6687  0.6839  -1.0416   0.0000   0.0000   0.0000   0.4525
   0.600   0.7909   0.00758   0.00267  -0.1598  0.6670  0.7028  -1.0510   0.0000   0.0000   0.0000   0.4494
   0.700   0.8021   0.00757   0.00270  -0.1598  0.6652  0.7203  -1.0603   0.0000   0.0000   0.0000   0.4464
   0.800   0.8131   0.00756   0.00273  -0.1597  0.6628  0.7367  -1.0696   0.0000   0.0000   0.0000   0.4435
   0.900   0.8242   0.00755   0.00276  -0.1597  0.6605  0.7508  -1.0803   0.0000   0.0000   0.0000   0.4407
   1.000   0.8351   0.00755   0.00277  -0.1596  0.6582  0.7633  -1.0910   0.0000   0.0000   0.0000   0.4379
   1.100   0.8461   0.00756   0.00278  -0.1595  0.6561  0.7746  -1.1017   0.0000   0.0000   0.0000   0.4352
   1.200   0.8571   0.00756   0.00280  -0.1595  0.6536  0.7854  -1.1124   0.0000   0.0000   0.0000   0.4326
   1.400   0.8787   0.00756   0.00284  -0.1593  0.6481  0.8067  -1.1337   0.0000   0.0000   0.0000   0.4275
   1.500   0.8893   0.00757   0.00285  -0.1591  0.6457  0.8171  -1.1445   0.0000   0.0000   0.0000   0.4250
   1.600   0.8999   0.00757   0.00287  -0.1590  0.6431  0.8277  -1.1554   0.0000   0.0000   0.0000   0.4226
   1.700   0.9105   0.00756   0.00290  -0.1588  0.6402  0.8386  -1.1662   0.0000   0.0000   0.0000   0.4202
   1.900   0.9311   0.00758   0.00293  -0.1584  0.6352  0.8600  -1.1876   0.0000   0.0000   0.0000   0.4156
   2.000   0.9412   0.00758   0.00296  -0.1581  0.6329  0.8708  -1.1981   0.0000   0.0000   0.0000   0.4134
   2.100   0.9511   0.00757   0.00298  -0.1578  0.6301  0.8820  -1.2090   0.0000   0.0000   0.0000   0.4112
   2.200   0.9607   0.00757   0.00300  -0.1574  0.6274  0.8940  -1.2214   0.0000   0.0000   0.0000   0.4090
   2.300   0.9699   0.00757   0.00301  -0.1569  0.6249  0.9072  -1.2334   0.0000   0.0000   0.0000   0.4068
   2.400   0.9783   0.00756   0.00302  -0.1563  0.6225  0.9243  -1.2449   0.0000   0.0000   0.0000   0.4046
   2.500   0.9867   0.00750   0.00301  -0.1556  0.6194  0.9505  -1.2564   0.0000   0.0000   0.0000   0.4024
   2.600   0.9993   0.00749   0.00299  -0.1559  0.6162  1.0000  -1.2709   0.0000   0.0000   0.0000   0.4006
   2.700   1.0106   0.00754   0.00301  -0.1559  0.6133  1.0000  -1.2845   0.0000   0.0000   0.0000   0.3988
   2.800   1.0220   0.00758   0.00304  -0.1560  0.6099  1.0000  -1.2982   0.0000   0.0000   0.0000   0.3970
   2.900   1.0333   0.00761   0.00306  -0.1561  0.6063  1.0000  -1.3118   0.0000   0.0000   0.0000   0.3953
   3.000   1.0444   0.00767   0.00309  -0.1561  0.6030  1.0000  -1.3254   0.0000   0.0000   0.0000   0.3936
   3.100   1.0556   0.00771   0.00312  -0.1562  0.5995  1.0000  -1.3390   0.0000   0.0000   0.0000   0.3919
   3.200   1.0668   0.00776   0.00316  -0.1562  0.5957  1.0000  -1.3526   0.0000   0.0000   0.0000   0.3903
   3.300   1.0777   0.00782   0.00319  -0.1563  0.5924  1.0000  -1.3661   0.0000   0.0000   0.0000   0.3887
   3.400   1.0888   0.00787   0.00323  -0.1563  0.5891  1.0000  -1.3798   0.0000   0.0000   0.0000   0.3871
   3.500   1.0999   0.00791   0.00327  -0.1563  0.5855  1.0000  -1.3934   0.0000   0.0000   0.0000   0.3855
   3.600   1.1108   0.00797   0.00331  -0.1563  0.5822  1.0000  -1.4070   0.0000   0.0000   0.0000   0.3840
   3.700   1.1217   0.00804   0.00335  -0.1563  0.5790  1.0000  -1.4205   0.0000   0.0000   0.0000   0.3825
   3.800   1.1328   0.00808   0.00339  -0.1563  0.5752  1.0000  -1.4345   0.0000   0.0000   0.0000   0.3810
   3.900   1.1435   0.00815   0.00344  -0.1563  0.5716  1.0000  -1.4484   0.0000   0.0000   0.0000   0.3796
   4.000   1.1543   0.00822   0.00349  -0.1563  0.5683  1.0000  -1.4634   0.0000   0.0000   0.0000   0.3781
   4.100   1.1652   0.00827   0.00354  -0.1563  0.5644  1.0000  -1.4788   0.0000   0.0000   0.0000   0.3767
   4.200   1.1758   0.00834   0.00359  -0.1562  0.5606  1.0000  -1.4943   0.0000   0.0000   0.0000   0.3753
   4.300   1.1864   0.00841   0.00364  -0.1562  0.5570  1.0000  -1.5100   0.0000   0.0000   0.0000   0.3739
   4.400   1.1971   0.00847   0.00370  -0.1561  0.5528  1.0000  -1.5259   0.0000   0.0000   0.0000   0.3726
   4.500   1.2075   0.00856   0.00376  -0.1560  0.5488  1.0000  -1.5415   0.0000   0.0000   0.0000   0.3713
   4.600   1.2180   0.00863   0.00382  -0.1560  0.5446  1.0000  -1.5573   0.0000   0.0000   0.0000   0.3699
   4.700   1.2284   0.00870   0.00388  -0.1559  0.5400  1.0000  -1.5739   0.0000   0.0000   0.0000   0.3686
   4.800   1.2385   0.00879   0.00395  -0.1557  0.5358  1.0000  -1.5905   0.0000   0.0000   0.0000   0.3674
   4.900   1.2491   0.00886   0.00401  -0.1557  0.5311  1.0000  -1.6074   0.0000   0.0000   0.0000   0.3661
   5.000   1.2591   0.00895   0.00408  -0.1555  0.5267  1.0000  -1.6240   0.0000   0.0000   0.0000   0.3648
   5.100   1.2695   0.00903   0.00415  -0.1554  0.5224  1.0000  -1.6408   0.0000   0.0000   0.0000   0.3636
   5.200   1.2796   0.00912   0.00422  -0.1553  0.5179  1.0000  -1.6575   0.0000   0.0000   0.0000   0.3624
   5.300   1.2895   0.00922   0.00430  -0.1551  0.5138  1.0000  -1.6763   0.0000   0.0000   0.0000   0.3612
   5.400   1.2998   0.00930   0.00438  -0.1550  0.5092  1.0000  -1.6963   0.0000   0.0000   0.0000   0.3600
   5.500   1.3095   0.00941   0.00447  -0.1548  0.5047  1.0000  -1.7158   0.0000   0.0000   0.0000   0.3588
   5.600   1.3196   0.00950   0.00455  -0.1547  0.5002  1.0000  -1.7356   0.0000   0.0000   0.0000   0.3577
   5.700   1.3294   0.00960   0.00463  -0.1545  0.4953  1.0000  -1.7553   0.0000   0.0000   0.0000   0.3565
   5.800   1.3390   0.00971   0.00472  -0.1543  0.4906  1.0000  -1.7748   0.0000   0.0000   0.0000   0.3554
   5.900   1.3487   0.00981   0.00481  -0.1541  0.4854  1.0000  -1.7945   0.0000   0.0000   0.0000   0.3543
   6.000   1.3580   0.00994   0.00491  -0.1538  0.4805  1.0000  -1.8138   0.0000   0.0000   0.0000   0.3531
   6.100   1.3677   0.01004   0.00500  -0.1536  0.4751  1.0000  -1.8365   0.0000   0.0000   0.0000   0.3520
   6.200   1.3768   0.01017   0.00511  -0.1533  0.4700  1.0000  -1.8604   0.0000   0.0000   0.0000   0.3509
   6.300   1.3864   0.01027   0.00521  -0.1531  0.4645  1.0000  -1.8851   0.0000   0.0000   0.0000   0.3498
   6.400   1.3952   0.01042   0.00532  -0.1527  0.4595  1.0000  -1.9089   0.0000   0.0000   0.0000   0.3487
   6.500   1.4048   0.01052   0.00542  -0.1525  0.4542  1.0000  -1.9337   0.0000   0.0000   0.0000   0.3477
   6.600   1.4135   0.01066   0.00554  -0.1522  0.4493  1.0000  -1.9575   0.0000   0.0000   0.0000   0.3466
   6.700   1.4228   0.01077   0.00564  -0.1519  0.4441  1.0000  -1.9822   0.0000   0.0000   0.0000   0.3456
   6.800   1.4313   0.01093   0.00577  -0.1515  0.4388  1.0000  -2.0059   0.0000   0.0000   0.0000   0.3445
   6.900   1.4403   0.01105   0.00589  -0.1512  0.4332  1.0000  -2.0303   0.0000   0.0000   0.0000   0.3435
   7.000   1.4484   0.01122   0.00603  -0.1507  0.4276  1.0000  -2.0537   0.0000   0.0000   0.0000   0.3424
   7.100   1.4572   0.01135   0.00615  -0.1504  0.4218  1.0000  -2.0780   0.0000   0.0000   0.0000   0.3414
   7.300   1.4736   0.01166   0.00642  -0.1495  0.4104  1.0000  -2.1254   0.0000   0.0000   0.0000   0.3393
   7.400   1.4811   0.01184   0.00657  -0.1490  0.4048  1.0000  -2.1534   0.0000   0.0000   0.0000   0.3383
   7.500   1.4895   0.01198   0.00671  -0.1486  0.3989  1.0000  -2.1844   0.0000   0.0000   0.0000   0.3373
   7.600   1.4966   0.01216   0.00686  -0.1479  0.3936  1.0000  -2.2135   0.0000   0.0000   0.0000   0.3362
   7.700   1.5040   0.01231   0.00700  -0.1473  0.3879  1.0000  -2.2432   0.0000   0.0000   0.0000   0.3352
   7.800   1.5106   0.01250   0.00717  -0.1466  0.3827  1.0000  -2.2718   0.0000   0.0000   0.0000   0.3341
   7.900   1.5179   0.01267   0.00733  -0.1460  0.3772  1.0000  -2.3015   0.0000   0.0000   0.0000   0.3331
   8.000   1.5244   0.01287   0.00751  -0.1453  0.3723  1.0000  -2.3300   0.0000   0.0000   0.0000   0.3321
   8.100   1.5317   0.01304   0.00767  -0.1447  0.3671  1.0000  -2.3600   0.0000   0.0000   0.0000   0.3311
   8.200   1.5378   0.01326   0.00787  -0.1440  0.3623  1.0000  -2.3881   0.0000   0.0000   0.0000   0.3300
   8.300   1.5450   0.01343   0.00804  -0.1434  0.3567  1.0000  -2.4181   0.0000   0.0000   0.0000   0.3291
   8.400   1.5509   0.01367   0.00825  -0.1426  0.3515  1.0000  -2.4460   0.0000   0.0000   0.0000   0.3280
   8.500   1.5575   0.01387   0.00844  -0.1419  0.3457  1.0000  -2.4753   0.0000   0.0000   0.0000   0.3271
   8.600   1.5632   0.01412   0.00867  -0.1412  0.3402  1.0000  -2.5030   0.0000   0.0000   0.0000   0.3260
   8.700   1.5691   0.01436   0.00889  -0.1404  0.3339  1.0000  -2.5312   0.0000   0.0000   0.0000   0.3251
   8.800   1.5747   0.01462   0.00913  -0.1396  0.3279  1.0000  -2.5589   0.0000   0.0000   0.0000   0.3241
   8.900   1.5794   0.01492   0.00940  -0.1387  0.3219  1.0000  -2.5853   0.0000   0.0000   0.0000   0.3231
   9.000   1.5852   0.01518   0.00965  -0.1380  0.3157  1.0000  -2.6149   0.0000   0.0000   0.0000   0.3221
   9.100   1.5899   0.01549   0.00994  -0.1371  0.3099  1.0000  -2.6504   0.0000   0.0000   0.0000   0.3211
   9.200   1.5952   0.01579   0.01021  -0.1364  0.3038  1.0000  -2.6901   0.0000   0.0000   0.0000   0.3202
   9.300   1.6003   0.01610   0.01051  -0.1356  0.2983  1.0000  -2.7315   0.0000   0.0000   0.0000   0.3193
   9.400   1.6051   0.01643   0.01082  -0.1348  0.2926  1.0000  -2.7748   0.0000   0.0000   0.0000   0.3183
   9.500   1.6105   0.01673   0.01111  -0.1341  0.2872  1.0000  -2.8298   0.0000   0.0000   0.0000   0.3174
   9.600   1.6150   0.01709   0.01145  -0.1333  0.2818  1.0000  -2.8821   0.0000   0.0000   0.0000   0.3165
   9.700   1.6205   0.01740   0.01176  -0.1326  0.2762  1.0000  -2.9381   0.0000   0.0000   0.0000   0.3157
   9.800   1.6247   0.01779   0.01212  -0.1318  0.2711  1.0000  -2.9902   0.0000   0.0000   0.0000   0.3148
   9.900   1.6299   0.01813   0.01245  -0.1311  0.2659  1.0000  -3.0460   0.0000   0.0000   0.0000   0.3139
  10.000   1.6340   0.01853   0.01284  -0.1303  0.2614  1.0000  -3.0984   0.0000   0.0000   0.0000   0.3130
  10.100   1.6393   0.01888   0.01318  -0.1297  0.2564  1.0000  -3.1549   0.0000   0.0000   0.0000   0.3122
  10.200   1.6432   0.01931   0.01359  -0.1289  0.2519  1.0000  -3.2070   0.0000   0.0000   0.0000   0.3113
  10.300   1.6482   0.01968   0.01396  -0.1282  0.2469  1.0000  -3.2633   0.0000   0.0000   0.0000   0.3105
  10.400   1.6519   0.02014   0.01439  -0.1274  0.2422  1.0000  -3.3154   0.0000   0.0000   0.0000   0.3097
  10.500   1.6564   0.02054   0.01479  -0.1267  0.2369  1.0000  -3.3708   0.0000   0.0000   0.0000   0.3089
  10.600   1.6601   0.02101   0.01524  -0.1260  0.2319  1.0000  -3.4235   0.0000   0.0000   0.0000   0.3080
  10.700   1.6641   0.02147   0.01569  -0.1252  0.2264  1.0000  -3.4773   0.0000   0.0000   0.0000   0.3072
  10.800   1.6679   0.02194   0.01615  -0.1245  0.2212  1.0000  -3.5309   0.0000   0.0000   0.0000   0.3064
  11.000   1.6746   0.02295   0.01713  -0.1230  0.2104  1.0000  -3.6358   0.0000   0.0000   0.0000   0.3049
  11.100   1.6775   0.02350   0.01765  -0.1222  0.2054  1.0000  -3.6868   0.0000   0.0000   0.0000   0.3041
  11.200   1.6809   0.02402   0.01816  -0.1215  0.2002  1.0000  -3.7398   0.0000   0.0000   0.0000   0.3033
  11.300   1.6840   0.02457   0.01869  -0.1208  0.1954  1.0000  -3.7921   0.0000   0.0000   0.0000   0.3025
  11.400   1.6867   0.02515   0.01925  -0.1200  0.1905  1.0000  -3.8430   0.0000   0.0000   0.0000   0.3018
  11.500   1.6900   0.02568   0.01978  -0.1193  0.1859  1.0000  -3.8964   0.0000   0.0000   0.0000   0.3010
  11.600   1.6922   0.02630   0.02038  -0.1185  0.1814  1.0000  -3.9461   0.0000   0.0000   0.0000   0.3003
  11.700   1.6956   0.02684   0.02091  -0.1179  0.1766  1.0000  -4.0005   0.0000   0.0000   0.0000   0.2995
  11.800   1.6978   0.02747   0.02153  -0.1171  0.1721  1.0000  -4.0503   0.0000   0.0000   0.0000   0.2988
  11.900   1.7009   0.02804   0.02210  -0.1164  0.1673  1.0000  -4.1038   0.0000   0.0000   0.0000   0.2981
  12.000   1.7032   0.02867   0.02272  -0.1157  0.1630  1.0000  -4.1545   0.0000   0.0000   0.0000   0.2973
  12.100   1.7055   0.02931   0.02334  -0.1150  0.1585  1.0000  -4.2057   0.0000   0.0000   0.0000   0.2966
  12.200   1.7078   0.02996   0.02398  -0.1143  0.1543  1.0000  -4.2565   0.0000   0.0000   0.0000   0.2959
  12.300   1.7095   0.03064   0.02465  -0.1135  0.1501  1.0000  -4.3057   0.0000   0.0000   0.0000   0.2952
  12.400   1.7116   0.03130   0.02531  -0.1128  0.1462  1.0000  -4.3562   0.0000   0.0000   0.0000   0.2945
  12.500   1.7130   0.03202   0.02602  -0.1121  0.1424  1.0000  -4.4044   0.0000   0.0000   0.0000   0.2938
  12.600   1.7152   0.03269   0.02668  -0.1114  0.1386  1.0000  -4.4556   0.0000   0.0000   0.0000   0.2931
  12.700   1.7167   0.03342   0.02741  -0.1107  0.1348  1.0000  -4.5042   0.0000   0.0000   0.0000   0.2925
  12.800   1.7186   0.03411   0.02810  -0.1100  0.1311  1.0000  -4.5550   0.0000   0.0000   0.0000   0.2918
  12.900   1.7198   0.03488   0.02886  -0.1093  0.1274  1.0000  -4.6030   0.0000   0.0000   0.0000   0.2911
  13.000   1.7217   0.03561   0.02958  -0.1087  0.1238  1.0000  -4.6535   0.0000   0.0000   0.0000   0.2905
  13.100   1.7227   0.03640   0.03038  -0.1080  0.1203  1.0000  -4.7010   0.0000   0.0000   0.0000   0.2898
  13.200   1.7243   0.03716   0.03113  -0.1074  0.1168  1.0000  -4.7510   0.0000   0.0000   0.0000   0.2892
  13.300   1.7252   0.03798   0.03194  -0.1067  0.1134  1.0000  -4.7980   0.0000   0.0000   0.0000   0.2886
  13.400   1.7265   0.03877   0.03274  -0.1061  0.1102  1.0000  -4.8468   0.0000   0.0000   0.0000   0.2879
  13.500   1.7273   0.03962   0.03358  -0.1055  0.1069  1.0000  -4.8937   0.0000   0.0000   0.0000   0.2873
  13.600   1.7284   0.04045   0.03441  -0.1049  0.1040  1.0000  -4.9419   0.0000   0.0000   0.0000   0.2867
  13.700   1.7293   0.04130   0.03526  -0.1043  0.1009  1.0000  -4.9898   0.0000   0.0000   0.0000   0.2861
  13.800   1.7301   0.04219   0.03615  -0.1037  0.0981  1.0000  -5.0368   0.0000   0.0000   0.0000   0.2855
  13.900   1.7314   0.04303   0.03699  -0.1031  0.0952  1.0000  -5.0863   0.0000   0.0000   0.0000   0.2850
  14.000   1.7316   0.04397   0.03794  -0.1026  0.0926  1.0000  -5.1311   0.0000   0.0000   0.0000   0.2844
  14.100   1.7332   0.04480   0.03877  -0.1021  0.0899  1.0000  -5.1823   0.0000   0.0000   0.0000   0.2838
  14.200   1.7337   0.04573   0.03971  -0.1015  0.0875  1.0000  -5.2287   0.0000   0.0000   0.0000   0.2833
  14.300   1.7348   0.04662   0.04061  -0.1010  0.0852  1.0000  -5.2775   0.0000   0.0000   0.0000   0.2827
  14.400   1.7357   0.04753   0.04152  -0.1005  0.0828  1.0000  -5.3259   0.0000   0.0000   0.0000   0.2822
  14.500   1.7356   0.04854   0.04254  -0.1000  0.0806  1.0000  -5.3698   0.0000   0.0000   0.0000   0.2817
  14.600   1.7369   0.04943   0.04344  -0.0996  0.0785  1.0000  -5.4198   0.0000   0.0000   0.0000   0.2812
  14.700   1.7373   0.05040   0.04443  -0.0991  0.0764  1.0000  -5.4662   0.0000   0.0000   0.0000   0.2806
  14.800   1.7372   0.05145   0.04548  -0.0986  0.0745  1.0000  -5.5101   0.0000   0.0000   0.0000   0.2801
  14.900   1.7383   0.05238   0.04643  -0.0982  0.0725  1.0000  -5.5599   0.0000   0.0000   0.0000   0.2797
  15.000   1.7385   0.05341   0.04747  -0.0978  0.0706  1.0000  -5.6055   0.0000   0.0000   0.0000   0.2792
  15.100   1.7383   0.05450   0.04857  -0.0974  0.0689  1.0000  -5.6488   0.0000   0.0000   0.0000   0.2787
  15.200   1.7392   0.05547   0.04956  -0.0970  0.0671  1.0000  -5.6979   0.0000   0.0000   0.0000   0.2782
  15.300   1.7391   0.05656   0.05066  -0.0966  0.0653  1.0000  -5.7421   0.0000   0.0000   0.0000   0.2778
  15.400   1.7384   0.05773   0.05183  -0.0962  0.0638  1.0000  -5.7835   0.0000   0.0000   0.0000   0.2773
  15.500   1.7394   0.05871   0.05284  -0.0959  0.0621  1.0000  -5.8329   0.0000   0.0000   0.0000   0.2769
  15.600   1.7393   0.05982   0.05397  -0.0956  0.0604  1.0000  -5.8773   0.0000   0.0000   0.0000   0.2765
  15.800   1.7386   0.06210   0.05628  -0.0949  0.0574  1.0000  -5.9637   0.0000   0.0000   0.0000   0.2756
  15.900   1.7385   0.06323   0.05743  -0.0946  0.0558  1.0000  -6.0078   0.0000   0.0000   0.0000   0.2752
  16.000   1.7373   0.06448   0.05870  -0.0943  0.0544  1.0000  -6.0473   0.0000   0.0000   0.0000   0.2748
  16.100   1.7369   0.06567   0.05990  -0.0940  0.0531  1.0000  -6.0898   0.0000   0.0000   0.0000   0.2745
  16.200   1.7369   0.06681   0.06107  -0.0938  0.0516  1.0000  -6.1350   0.0000   0.0000   0.0000   0.2741
  16.300   1.7360   0.06807   0.06235  -0.0936  0.0501  1.0000  -6.1752   0.0000   0.0000   0.0000   0.2737
  16.400   1.7346   0.06940   0.06369  -0.0933  0.0489  1.0000  -6.2130   0.0000   0.0000   0.0000   0.2734
  16.500   1.7343   0.07060   0.06491  -0.0931  0.0475  1.0000  -6.2565   0.0000   0.0000   0.0000   0.2730
  16.600   1.7334   0.07188   0.06622  -0.0929  0.0462  1.0000  -6.2966   0.0000   0.0000   0.0000   0.2727
  16.700   1.7314   0.07330   0.06765  -0.0927  0.0450  1.0000  -6.3315   0.0000   0.0000   0.0000   0.2724
  16.800   1.7303   0.07462   0.06899  -0.0926  0.0438  1.0000  -6.3708   0.0000   0.0000   0.0000   0.2721
  16.900   1.7293   0.07595   0.07035  -0.0924  0.0426  1.0000  -6.4100   0.0000   0.0000   0.0000   0.2718
  17.000   1.7274   0.07737   0.07179  -0.0923  0.0414  1.0000  -6.4453   0.0000   0.0000   0.0000   0.2715
  17.100   1.7247   0.07890   0.07334  -0.0922  0.0404  1.0000  -6.4758   0.0000   0.0000   0.0000   0.2713
  17.200   1.7235   0.08026   0.07472  -0.0921  0.0393  1.0000  -6.5139   0.0000   0.0000   0.0000   0.2710
  17.300   1.7220   0.08166   0.07615  -0.0920  0.0383  1.0000  -6.5505   0.0000   0.0000   0.0000   0.2708
  17.400   1.7196   0.08318   0.07769  -0.0919  0.0373  1.0000  -6.5826   0.0000   0.0000   0.0000   0.2706
  17.500   1.7166   0.08479   0.07932  -0.0919  0.0364  1.0000  -6.6111   0.0000   0.0000   0.0000   0.2704
  17.600   1.7148   0.08627   0.08084  -0.0918  0.0355  1.0000  -6.6452   0.0000   0.0000   0.0000   0.2702
  17.700   1.7135   0.08768   0.08228  -0.0918  0.0345  1.0000  -6.6822   0.0000   0.0000   0.0000   0.2699
  17.800   1.7111   0.08924   0.08386  -0.0919  0.0336  1.0000  -6.7138   0.0000   0.0000   0.0000   0.2698
  17.900   1.7083   0.09087   0.08552  -0.0919  0.0328  1.0000  -6.7421   0.0000   0.0000   0.0000   0.2696
  18.000   1.7049   0.09260   0.08727  -0.0920  0.0320  1.0000  -6.7674   0.0000   0.0000   0.0000   0.2695
  18.100   1.7037   0.09401   0.08872  -0.0920  0.0312  1.0000  -6.8046   0.0000   0.0000   0.0000   0.2694
  18.200   1.7016   0.09558   0.09032  -0.0921  0.0304  1.0000  -6.8361   0.0000   0.0000   0.0000   0.2692
  18.300   1.6989   0.09721   0.09198  -0.0922  0.0296  1.0000  -6.8653   0.0000   0.0000   0.0000   0.2691
  18.400   1.6954   0.09898   0.09377  -0.0924  0.0289  1.0000  -6.8957   0.0000   0.0000   0.0000   0.2691
  18.500   1.6920   0.10072   0.09554  -0.0926  0.0283  1.0000  -6.9265   0.0000   0.0000   0.0000   0.2690
  18.600   1.6903   0.10224   0.09709  -0.0927  0.0276  1.0000  -6.9675   0.0000   0.0000   0.0000   0.2689
  18.700   1.6881   0.10382   0.09870  -0.0929  0.0269  1.0000  -7.0057   0.0000   0.0000   0.0000   0.2688
  18.800   1.6851   0.10553   0.10045  -0.0931  0.0263  1.0000  -7.0388   0.0000   0.0000   0.0000   0.2688
  18.900   1.6818   0.10729   0.10223  -0.0934  0.0257  1.0000  -7.0694   0.0000   0.0000   0.0000   0.2688
  19.000   1.6778   0.10917   0.10414  -0.0937  0.0252  1.0000  -7.0949   0.0000   0.0000   0.0000   0.2689
  19.100   1.6750   0.11088   0.10588  -0.0940  0.0247  1.0000  -7.1277   0.0000   0.0000   0.0000   0.2689
  19.200   1.6726   0.11254   0.10758  -0.0943  0.0241  1.0000  -7.1633   0.0000   0.0000   0.0000   0.2689
  19.300   1.6700   0.11423   0.10931  -0.0946  0.0236  1.0000  -7.1974   0.0000   0.0000   0.0000   0.2689
  19.400   1.6669   0.11602   0.11113  -0.0950  0.0231  1.0000  -7.2275   0.0000   0.0000   0.0000   0.2689
  19.500   1.6636   0.11785   0.11298  -0.0954  0.0227  1.0000  -7.2559   0.0000   0.0000   0.0000   0.2690
  19.600   1.6596   0.11978   0.11495  -0.0958  0.0223  1.0000  -7.2796   0.0000   0.0000   0.0000   0.2692
  19.700   1.6555   0.12175   0.11694  -0.0963  0.0219  1.0000  -7.3012   0.0000   0.0000   0.0000   0.2694
  19.800   1.6522   0.12360   0.11883  -0.0968  0.0215  1.0000  -7.3281   0.0000   0.0000   0.0000   0.2695
  19.900   1.6500   0.12528   0.12055  -0.0973  0.0211  1.0000  -7.3624   0.0000   0.0000   0.0000   0.2696
  20.000   1.6471   0.12706   0.12237  -0.0978  0.0207  1.0000  -7.3922   0.0000   0.0000   0.0000   0.2697


