xflr5 v6.57

 Calculated polar for: rev_root_140

 1 1 Reynolds number fixed          Mach number fixed         

 xtrf =   1.000 (top)        1.000 (bottom)
 Mach =   0.000     Re =     0.500 e 6     Ncrit =   9.000

  alpha     CL        CD       CDp       Cm    Top Xtr Bot Xtr   Cpmin    Chinge    XCp    
 ------- -------- --------- --------- -------- ------- ------- -------- --------- ---------
 -10.000  -0.3684   0.03192   0.02792  -0.1430  0.8470  0.0232  -5.7338   0.0000   0.0000   0.0000  -0.1623
  -9.900  -0.3641   0.03037   0.02613  -0.1446  0.8449  0.0233  -5.7326   0.0000   0.0000   0.0000  -0.1713
  -9.800  -0.3600   0.02864   0.02417  -0.1460  0.8428  0.0235  -5.7339   0.0000   0.0000   0.0000  -0.1797
  -9.700  -0.3544   0.02721   0.02265  -0.1468  0.8405  0.0237  -5.7010   0.0000   0.0000   0.0000  -0.1885
  -9.600  -0.3460   0.02654   0.02193  -0.1472  0.8386  0.0239  -5.6237   0.0000   0.0000   0.0000  -0.1999
  -9.500  -0.3368   0.02610   0.02147  -0.1475  0.8369  0.0241  -5.5334   0.0000   0.0000   0.0000  -0.2127
  -9.400  -0.3272   0.02572   0.02105  -0.1477  0.8354  0.0244  -5.4427   0.0000   0.0000   0.0000  -0.2266
  -9.300  -0.3175   0.02541   0.02072  -0.1480  0.8338  0.0246  -5.3488   0.0000   0.0000   0.0000  -0.2415
  -9.200  -0.3079   0.02500   0.02028  -0.1482  0.8318  0.0248  -5.2628   0.0000   0.0000   0.0000  -0.2573
  -9.100  -0.2985   0.02446   0.01967  -0.1485  0.8300  0.0250  -5.1870   0.0000   0.0000   0.0000  -0.2739
  -9.000  -0.2893   0.02380   0.01892  -0.1489  0.8284  0.0252  -5.1196   0.0000   0.0000   0.0000  -0.2915
  -8.900  -0.2799   0.02313   0.01813  -0.1493  0.8269  0.0254  -5.0543   0.0000   0.0000   0.0000  -0.3105
  -8.800  -0.2703   0.02249   0.01737  -0.1496  0.8256  0.0256  -4.9885   0.0000   0.0000   0.0000  -0.3312
  -8.700  -0.2607   0.02186   0.01664  -0.1499  0.8237  0.0258  -4.9225   0.0000   0.0000   0.0000  -0.3532
  -8.600  -0.2509   0.02126   0.01594  -0.1501  0.8220  0.0261  -4.8551   0.0000   0.0000   0.0000  -0.3775
  -8.500  -0.2409   0.02070   0.01527  -0.1504  0.8204  0.0263  -4.7861   0.0000   0.0000   0.0000  -0.4041
  -8.400  -0.2307   0.02019   0.01464  -0.1506  0.8189  0.0265  -4.7151   0.0000   0.0000   0.0000  -0.4336
  -8.300  -0.2202   0.01972   0.01406  -0.1508  0.8176  0.0268  -4.6419   0.0000   0.0000   0.0000  -0.4665
  -8.200  -0.2096   0.01932   0.01354  -0.1510  0.8163  0.0270  -4.5690   0.0000   0.0000   0.0000  -0.5031
  -8.100  -0.1990   0.01898   0.01310  -0.1511  0.8146  0.0272  -4.5001   0.0000   0.0000   0.0000  -0.5434
  -8.000  -0.1884   0.01860   0.01264  -0.1513  0.8129  0.0273  -4.4315   0.0000   0.0000   0.0000  -0.5884
  -7.900  -0.1786   0.01789   0.01189  -0.1514  0.8114  0.0276  -4.3705   0.0000   0.0000   0.0000  -0.6347
  -7.800  -0.1681   0.01751   0.01150  -0.1516  0.8100  0.0279  -4.2925   0.0000   0.0000   0.0000  -0.6900
  -7.700  -0.1573   0.01725   0.01123  -0.1517  0.8087  0.0283  -4.2092   0.0000   0.0000   0.0000  -0.7549
  -7.600  -0.1463   0.01704   0.01099  -0.1518  0.8076  0.0286  -4.1253   0.0000   0.0000   0.0000  -0.8309
  -7.500  -0.1354   0.01683   0.01076  -0.1520  0.8061  0.0289  -4.0439   0.0000   0.0000   0.0000  -0.9178
  -7.400  -0.1245   0.01661   0.01051  -0.1521  0.8045  0.0293  -3.9649   0.0000   0.0000   0.0000  -1.0200
  -7.300  -0.1135   0.01638   0.01025  -0.1522  0.8030  0.0297  -3.8874   0.0000   0.0000   0.0000  -1.1428
  -7.200  -0.1025   0.01614   0.00996  -0.1523  0.8016  0.0301  -3.8121   0.0000   0.0000   0.0000  -1.2928
  -7.100  -0.0914   0.01589   0.00966  -0.1523  0.8002  0.0304  -3.7453   0.0000   0.0000   0.0000  -1.4803
  -7.000  -0.0802   0.01565   0.00936  -0.1524  0.7990  0.0307  -3.6808   0.0000   0.0000   0.0000  -1.7215
  -6.900  -0.0689   0.01543   0.00907  -0.1525  0.7978  0.0310  -3.6158   0.0000   0.0000   0.0000  -2.0445
  -6.800  -0.0579   0.01523   0.00883  -0.1526  0.7961  0.0313  -3.5511   0.0000   0.0000   0.0000  -2.4786
  -6.700  -0.0468   0.01503   0.00859  -0.1526  0.7944  0.0315  -3.4862   0.0000   0.0000   0.0000  -3.1236
  -6.600  -0.0363   0.01458   0.00814  -0.1527  0.7928  0.0320  -3.4270   0.0000   0.0000   0.0000  -4.1015
  -6.500  -0.0253   0.01432   0.00787  -0.1529  0.7914  0.0323  -3.3589   0.0000   0.0000   0.0000  -5.9888
  -6.400  -0.0141   0.01412   0.00766  -0.1530  0.7902  0.0327  -3.2887   0.0000   0.0000   0.0000  -10.9389
  -6.300  -0.0028   0.01395   0.00748  -0.1531  0.7890  0.0332  -3.2181   0.0000   0.0000   0.0000  -56.6397
  -6.200   0.0085   0.01380   0.00731  -0.1532  0.7878  0.0337  -3.1481   0.0000   0.0000   0.0000  18.7603
  -6.100   0.0196   0.01365   0.00715  -0.1532  0.7862  0.0343  -3.0800   0.0000   0.0000   0.0000   8.2956
  -6.000   0.0309   0.01350   0.00698  -0.1533  0.7846  0.0349  -3.0129   0.0000   0.0000   0.0000   5.3685
  -5.900   0.0422   0.01337   0.00681  -0.1534  0.7831  0.0354  -2.9465   0.0000   0.0000   0.0000   3.9926
  -5.800   0.0537   0.01325   0.00664  -0.1535  0.7817  0.0359  -2.8802   0.0000   0.0000   0.0000   3.1929
  -5.700   0.0648   0.01295   0.00634  -0.1536  0.7804  0.0365  -2.8186   0.0000   0.0000   0.0000   2.6876
  -5.600   0.0762   0.01275   0.00613  -0.1538  0.7793  0.0371  -2.7521   0.0000   0.0000   0.0000   2.3244
  -5.500   0.0876   0.01260   0.00598  -0.1539  0.7781  0.0378  -2.6851   0.0000   0.0000   0.0000   2.0550
  -5.400   0.0988   0.01246   0.00584  -0.1540  0.7765  0.0385  -2.6197   0.0000   0.0000   0.0000   1.8502
  -5.300   0.1102   0.01232   0.00570  -0.1540  0.7750  0.0394  -2.5580   0.0000   0.0000   0.0000   1.6854
  -5.200   0.1216   0.01220   0.00555  -0.1541  0.7735  0.0402  -2.5016   0.0000   0.0000   0.0000   1.5501
  -5.100   0.1331   0.01204   0.00536  -0.1542  0.7722  0.0412  -2.4467   0.0000   0.0000   0.0000   1.4381
  -5.000   0.1446   0.01185   0.00518  -0.1544  0.7710  0.0423  -2.3889   0.0000   0.0000   0.0000   1.3443
  -4.900   0.1563   0.01174   0.00505  -0.1545  0.7698  0.0436  -2.3301   0.0000   0.0000   0.0000   1.2630
  -4.800   0.1680   0.01165   0.00492  -0.1547  0.7688  0.0452  -2.2728   0.0000   0.0000   0.0000   1.1924
  -4.700   0.1792   0.01148   0.00479  -0.1548  0.7671  0.0470  -2.2176   0.0000   0.0000   0.0000   1.1335
  -4.600   0.1906   0.01138   0.00469  -0.1549  0.7655  0.0491  -2.1598   0.0000   0.0000   0.0000   1.0808
  -4.500   0.2021   0.01127   0.00458  -0.1549  0.7640  0.0517  -2.1046   0.0000   0.0000   0.0000   1.0335
  -4.400   0.2137   0.01115   0.00447  -0.1551  0.7626  0.0546  -2.0471   0.0000   0.0000   0.0000   0.9913
  -4.300   0.2253   0.01105   0.00435  -0.1552  0.7613  0.0579  -1.9913   0.0000   0.0000   0.0000   0.9531
  -4.200   0.2371   0.01095   0.00425  -0.1553  0.7600  0.0616  -1.9341   0.0000   0.0000   0.0000   0.9185
  -4.100   0.2488   0.01085   0.00414  -0.1555  0.7589  0.0655  -1.8828   0.0000   0.0000   0.0000   0.8872
  -4.000   0.2601   0.01075   0.00406  -0.1556  0.7572  0.0698  -1.8330   0.0000   0.0000   0.0000   0.8595
  -3.900   0.2715   0.01065   0.00398  -0.1556  0.7554  0.0745  -1.7820   0.0000   0.0000   0.0000   0.8340
  -3.800   0.2830   0.01055   0.00390  -0.1558  0.7538  0.0796  -1.7306   0.0000   0.0000   0.0000   0.8103
  -3.700   0.2946   0.01046   0.00383  -0.1559  0.7523  0.0853  -1.6789   0.0000   0.0000   0.0000   0.7884
  -3.600   0.3062   0.01038   0.00375  -0.1560  0.7510  0.0918  -1.6271   0.0000   0.0000   0.0000   0.7680
  -3.500   0.3180   0.01030   0.00368  -0.1562  0.7498  0.0989  -1.5752   0.0000   0.0000   0.0000   0.7490
  -3.400   0.3297   0.01023   0.00362  -0.1563  0.7485  0.1067  -1.5236   0.0000   0.0000   0.0000   0.7314
  -3.300   0.3410   0.01014   0.00358  -0.1564  0.7468  0.1151  -1.4733   0.0000   0.0000   0.0000   0.7155
  -3.200   0.3524   0.01007   0.00354  -0.1565  0.7451  0.1245  -1.4228   0.0000   0.0000   0.0000   0.7004
  -3.100   0.3639   0.01000   0.00350  -0.1566  0.7436  0.1345  -1.3723   0.0000   0.0000   0.0000   0.6862
  -3.000   0.3755   0.00994   0.00345  -0.1567  0.7421  0.1447  -1.3220   0.0000   0.0000   0.0000   0.6728
  -2.900   0.3872   0.00987   0.00341  -0.1568  0.7408  0.1552  -1.2719   0.0000   0.0000   0.0000   0.6601
  -2.800   0.3990   0.00980   0.00337  -0.1570  0.7396  0.1666  -1.2219   0.0000   0.0000   0.0000   0.6482
  -2.700   0.4107   0.00975   0.00334  -0.1572  0.7384  0.1787  -1.1726   0.0000   0.0000   0.0000   0.6370
  -2.600   0.4220   0.00969   0.00332  -0.1572  0.7366  0.1911  -1.1246   0.0000   0.0000   0.0000   0.6266
  -2.500   0.4334   0.00963   0.00330  -0.1573  0.7349  0.2035  -1.0768   0.0000   0.0000   0.0000   0.6167
  -2.400   0.4449   0.00956   0.00328  -0.1574  0.7332  0.2163  -1.0324   0.0000   0.0000   0.0000   0.6072
  -2.300   0.4565   0.00951   0.00325  -0.1576  0.7317  0.2295  -0.9889   0.0000   0.0000   0.0000   0.5982
  -2.200   0.4683   0.00946   0.00322  -0.1577  0.7303  0.2424  -0.9456   0.0000   0.0000   0.0000   0.5895
  -2.100   0.4801   0.00942   0.00318  -0.1578  0.7289  0.2547  -0.9026   0.0000   0.0000   0.0000   0.5813
  -2.000   0.4914   0.00937   0.00317  -0.1579  0.7272  0.2674  -0.8609   0.0000   0.0000   0.0000   0.5736
  -1.900   0.5027   0.00931   0.00316  -0.1580  0.7252  0.2807  -0.8281   0.0000   0.0000   0.0000   0.5662
  -1.800   0.5142   0.00926   0.00315  -0.1581  0.7233  0.2947  -0.8360   0.0000   0.0000   0.0000   0.5591
  -1.700   0.5258   0.00922   0.00313  -0.1582  0.7217  0.3090  -0.8440   0.0000   0.0000   0.0000   0.5523
  -1.600   0.5375   0.00917   0.00311  -0.1583  0.7202  0.3239  -0.8520   0.0000   0.0000   0.0000   0.5458
  -1.500   0.5492   0.00913   0.00309  -0.1584  0.7188  0.3402  -0.8602   0.0000   0.0000   0.0000   0.5395
  -1.400   0.5607   0.00908   0.00309  -0.1585  0.7172  0.3573  -0.8680   0.0000   0.0000   0.0000   0.5336
  -1.300   0.5720   0.00903   0.00310  -0.1586  0.7153  0.3747  -0.8758   0.0000   0.0000   0.0000   0.5279
  -1.200   0.5834   0.00899   0.00310  -0.1587  0.7135  0.3918  -0.8837   0.0000   0.0000   0.0000   0.5224
  -1.100   0.5950   0.00894   0.00309  -0.1588  0.7118  0.4092  -0.8917   0.0000   0.0000   0.0000   0.5171
  -1.000   0.6066   0.00890   0.00308  -0.1589  0.7102  0.4264  -0.8998   0.0000   0.0000   0.0000   0.5120
  -0.900   0.6184   0.00887   0.00307  -0.1590  0.7088  0.4436  -0.9089   0.0000   0.0000   0.0000   0.5071
  -0.800   0.6299   0.00883   0.00308  -0.1591  0.7072  0.4621  -0.9181   0.0000   0.0000   0.0000   0.5023
  -0.700   0.6411   0.00878   0.00309  -0.1592  0.7052  0.4816  -0.9270   0.0000   0.0000   0.0000   0.4978
  -0.600   0.6525   0.00874   0.00311  -0.1593  0.7032  0.5015  -0.9360   0.0000   0.0000   0.0000   0.4934
  -0.500   0.6639   0.00869   0.00311  -0.1593  0.7014  0.5222  -0.9451   0.0000   0.0000   0.0000   0.4891
  -0.400   0.6755   0.00865   0.00311  -0.1594  0.6998  0.5452  -0.9543   0.0000   0.0000   0.0000   0.4850
  -0.300   0.6870   0.00861   0.00312  -0.1595  0.6983  0.5686  -0.9639   0.0000   0.0000   0.0000   0.4810
  -0.200   0.6983   0.00857   0.00314  -0.1595  0.6964  0.5919  -0.9731   0.0000   0.0000   0.0000   0.4771
  -0.100   0.7092   0.00852   0.00317  -0.1595  0.6940  0.6151  -0.9823   0.0000   0.0000   0.0000   0.4734
   0.000   0.7204   0.00849   0.00319  -0.1595  0.6918  0.6367  -0.9915   0.0000   0.0000   0.0000   0.4697
   0.100   0.7316   0.00845   0.00320  -0.1594  0.6898  0.6573  -1.0009   0.0000   0.0000   0.0000   0.4661
   0.200   0.7428   0.00843   0.00321  -0.1594  0.6881  0.6785  -1.0103   0.0000   0.0000   0.0000   0.4626
   0.300   0.7539   0.00842   0.00323  -0.1594  0.6862  0.6984  -1.0195   0.0000   0.0000   0.0000   0.4593
   0.400   0.7646   0.00839   0.00327  -0.1592  0.6838  0.7170  -1.0285   0.0000   0.0000   0.0000   0.4560
   0.500   0.7754   0.00838   0.00330  -0.1591  0.6816  0.7347  -1.0377   0.0000   0.0000   0.0000   0.4528
   0.600   0.7864   0.00837   0.00331  -0.1590  0.6796  0.7506  -1.0469   0.0000   0.0000   0.0000   0.4497
   0.700   0.7974   0.00837   0.00332  -0.1589  0.6779  0.7645  -1.0562   0.0000   0.0000   0.0000   0.4466
   0.800   0.8084   0.00837   0.00333  -0.1589  0.6763  0.7773  -1.0657   0.0000   0.0000   0.0000   0.4436
   0.900   0.8189   0.00837   0.00337  -0.1587  0.6739  0.7891  -1.0760   0.0000   0.0000   0.0000   0.4408
   1.000   0.8296   0.00836   0.00339  -0.1586  0.6716  0.8001  -1.0865   0.0000   0.0000   0.0000   0.4380
   1.100   0.8403   0.00836   0.00340  -0.1584  0.6695  0.8110  -1.0970   0.0000   0.0000   0.0000   0.4352
   1.200   0.8509   0.00835   0.00341  -0.1582  0.6676  0.8221  -1.1075   0.0000   0.0000   0.0000   0.4325
   1.300   0.8615   0.00836   0.00341  -0.1581  0.6657  0.8334  -1.1180   0.0000   0.0000   0.0000   0.4299
   1.400   0.8715   0.00834   0.00344  -0.1578  0.6629  0.8450  -1.1280   0.0000   0.0000   0.0000   0.4273
   1.500   0.8814   0.00833   0.00345  -0.1575  0.6602  0.8567  -1.1384   0.0000   0.0000   0.0000   0.4248
   1.600   0.8913   0.00832   0.00346  -0.1571  0.6578  0.8686  -1.1488   0.0000   0.0000   0.0000   0.4223
   1.700   0.9009   0.00831   0.00345  -0.1567  0.6557  0.8806  -1.1591   0.0000   0.0000   0.0000   0.4198
   1.800   0.9100   0.00828   0.00346  -0.1562  0.6527  0.8935  -1.1689   0.0000   0.0000   0.0000   0.4174
   1.900   0.9187   0.00826   0.00346  -0.1556  0.6498  0.9075  -1.1786   0.0000   0.0000   0.0000   0.4149
   2.000   0.9270   0.00822   0.00345  -0.1549  0.6473  0.9241  -1.1881   0.0000   0.0000   0.0000   0.4125
   2.100   0.9359   0.00819   0.00341  -0.1543  0.6452  0.9468  -1.1979   0.0000   0.0000   0.0000   0.4102
   2.200   0.9489   0.00815   0.00338  -0.1546  0.6423  1.0000  -1.2119   0.0000   0.0000   0.0000   0.4082
   2.300   0.9605   0.00818   0.00341  -0.1548  0.6394  1.0000  -1.2256   0.0000   0.0000   0.0000   0.4062
   2.400   0.9721   0.00821   0.00342  -0.1549  0.6369  1.0000  -1.2393   0.0000   0.0000   0.0000   0.4043
   2.500   0.9838   0.00826   0.00343  -0.1551  0.6347  1.0000  -1.2530   0.0000   0.0000   0.0000   0.4024
   2.600   0.9952   0.00829   0.00346  -0.1552  0.6318  1.0000  -1.2666   0.0000   0.0000   0.0000   0.4006
   2.700   1.0065   0.00833   0.00349  -0.1553  0.6287  1.0000  -1.2802   0.0000   0.0000   0.0000   0.3988
   2.800   1.0179   0.00837   0.00351  -0.1553  0.6259  1.0000  -1.2938   0.0000   0.0000   0.0000   0.3970
   3.000   1.0403   0.00845   0.00357  -0.1554  0.6198  1.0000  -1.3210   0.0000   0.0000   0.0000   0.3935
   3.100   1.0515   0.00849   0.00359  -0.1555  0.6164  1.0000  -1.3346   0.0000   0.0000   0.0000   0.3918
   3.200   1.0626   0.00854   0.00361  -0.1555  0.6134  1.0000  -1.3482   0.0000   0.0000   0.0000   0.3902
   3.300   1.0736   0.00858   0.00365  -0.1555  0.6097  1.0000  -1.3617   0.0000   0.0000   0.0000   0.3886
   3.400   1.0845   0.00862   0.00369  -0.1555  0.6060  1.0000  -1.3752   0.0000   0.0000   0.0000   0.3870
   3.500   1.0955   0.00868   0.00371  -0.1555  0.6028  1.0000  -1.3888   0.0000   0.0000   0.0000   0.3854
   3.600   1.1064   0.00873   0.00375  -0.1555  0.5993  1.0000  -1.4023   0.0000   0.0000   0.0000   0.3838
   3.700   1.1173   0.00878   0.00380  -0.1555  0.5956  1.0000  -1.4158   0.0000   0.0000   0.0000   0.3823
   3.800   1.1281   0.00884   0.00383  -0.1555  0.5924  1.0000  -1.4297   0.0000   0.0000   0.0000   0.3808
   3.900   1.1390   0.00889   0.00388  -0.1555  0.5891  1.0000  -1.4437   0.0000   0.0000   0.0000   0.3794
   4.000   1.1498   0.00895   0.00393  -0.1554  0.5854  1.0000  -1.4586   0.0000   0.0000   0.0000   0.3779
   4.100   1.1605   0.00901   0.00398  -0.1554  0.5820  1.0000  -1.4739   0.0000   0.0000   0.0000   0.3765
   4.200   1.1712   0.00908   0.00403  -0.1553  0.5786  1.0000  -1.4892   0.0000   0.0000   0.0000   0.3751
   4.300   1.1819   0.00913   0.00408  -0.1553  0.5747  1.0000  -1.5050   0.0000   0.0000   0.0000   0.3737
   4.400   1.1924   0.00921   0.00413  -0.1552  0.5711  1.0000  -1.5207   0.0000   0.0000   0.0000   0.3724
   4.500   1.2029   0.00928   0.00419  -0.1552  0.5675  1.0000  -1.5365   0.0000   0.0000   0.0000   0.3710
   4.600   1.2135   0.00934   0.00425  -0.1551  0.5634  1.0000  -1.5522   0.0000   0.0000   0.0000   0.3697
   4.700   1.2238   0.00942   0.00431  -0.1550  0.5596  1.0000  -1.5685   0.0000   0.0000   0.0000   0.3684
   4.800   1.2341   0.00949   0.00438  -0.1549  0.5555  1.0000  -1.5853   0.0000   0.0000   0.0000   0.3671
   4.900   1.2444   0.00957   0.00444  -0.1548  0.5511  1.0000  -1.6019   0.0000   0.0000   0.0000   0.3659
   5.000   1.2544   0.00966   0.00451  -0.1546  0.5470  1.0000  -1.6185   0.0000   0.0000   0.0000   0.3646
   5.100   1.2647   0.00973   0.00458  -0.1545  0.5423  1.0000  -1.6352   0.0000   0.0000   0.0000   0.3634
   5.200   1.2746   0.00982   0.00465  -0.1543  0.5379  1.0000  -1.6517   0.0000   0.0000   0.0000   0.3621
   5.300   1.2847   0.00991   0.00473  -0.1542  0.5335  1.0000  -1.6701   0.0000   0.0000   0.0000   0.3609
   5.400   1.2947   0.00999   0.00481  -0.1540  0.5290  1.0000  -1.6897   0.0000   0.0000   0.0000   0.3597
   5.500   1.3044   0.01010   0.00489  -0.1538  0.5249  1.0000  -1.7092   0.0000   0.0000   0.0000   0.3585
   5.600   1.3145   0.01018   0.00497  -0.1537  0.5203  1.0000  -1.7290   0.0000   0.0000   0.0000   0.3574
   5.700   1.3241   0.01029   0.00506  -0.1534  0.5159  1.0000  -1.7484   0.0000   0.0000   0.0000   0.3562
   5.800   1.3339   0.01039   0.00515  -0.1532  0.5114  1.0000  -1.7681   0.0000   0.0000   0.0000   0.3551
   5.900   1.3435   0.01049   0.00524  -0.1530  0.5066  1.0000  -1.7876   0.0000   0.0000   0.0000   0.3539
   6.000   1.3529   0.01061   0.00534  -0.1528  0.5022  1.0000  -1.8070   0.0000   0.0000   0.0000   0.3528
   6.100   1.3625   0.01071   0.00543  -0.1525  0.4970  1.0000  -1.8279   0.0000   0.0000   0.0000   0.3517
   6.200   1.3714   0.01084   0.00554  -0.1522  0.4923  1.0000  -1.8516   0.0000   0.0000   0.0000   0.3506
   6.300   1.3809   0.01094   0.00564  -0.1520  0.4869  1.0000  -1.8762   0.0000   0.0000   0.0000   0.3495
   6.400   1.3896   0.01109   0.00576  -0.1516  0.4820  1.0000  -1.8998   0.0000   0.0000   0.0000   0.3484
   6.500   1.3990   0.01119   0.00586  -0.1513  0.4765  1.0000  -1.9243   0.0000   0.0000   0.0000   0.3473
   6.600   1.4076   0.01133   0.00598  -0.1510  0.4715  1.0000  -1.9480   0.0000   0.0000   0.0000   0.3462
   6.700   1.4167   0.01145   0.00609  -0.1507  0.4662  1.0000  -1.9724   0.0000   0.0000   0.0000   0.3452
   6.800   1.4253   0.01159   0.00622  -0.1503  0.4611  1.0000  -1.9961   0.0000   0.0000   0.0000   0.3441
   6.900   1.4341   0.01172   0.00634  -0.1499  0.4561  1.0000  -2.0203   0.0000   0.0000   0.0000   0.3430
   7.000   1.4425   0.01187   0.00647  -0.1495  0.4508  1.0000  -2.0440   0.0000   0.0000   0.0000   0.3420
   7.100   1.4509   0.01201   0.00660  -0.1491  0.4456  1.0000  -2.0678   0.0000   0.0000   0.0000   0.3409
   7.200   1.4589   0.01217   0.00674  -0.1486  0.4401  1.0000  -2.0912   0.0000   0.0000   0.0000   0.3399
   7.300   1.4670   0.01232   0.00688  -0.1482  0.4346  1.0000  -2.1146   0.0000   0.0000   0.0000   0.3389
   7.400   1.4746   0.01249   0.00703  -0.1476  0.4289  1.0000  -2.1401   0.0000   0.0000   0.0000   0.3378
   7.500   1.4824   0.01265   0.00718  -0.1471  0.4233  1.0000  -2.1701   0.0000   0.0000   0.0000   0.3368
   7.600   1.4896   0.01283   0.00734  -0.1465  0.4177  1.0000  -2.1992   0.0000   0.0000   0.0000   0.3357
   7.700   1.4967   0.01299   0.00749  -0.1458  0.4121  1.0000  -2.2284   0.0000   0.0000   0.0000   0.3347
   7.800   1.5030   0.01318   0.00766  -0.1451  0.4067  1.0000  -2.2564   0.0000   0.0000   0.0000   0.3336
   7.900   1.5101   0.01335   0.00782  -0.1444  0.4011  1.0000  -2.2857   0.0000   0.0000   0.0000   0.3326
   8.000   1.5163   0.01355   0.00801  -0.1437  0.3958  1.0000  -2.3137   0.0000   0.0000   0.0000   0.3315
   8.100   1.5232   0.01374   0.00818  -0.1430  0.3904  1.0000  -2.3429   0.0000   0.0000   0.0000   0.3305
   8.200   1.5292   0.01396   0.00838  -0.1422  0.3851  1.0000  -2.3706   0.0000   0.0000   0.0000   0.3294
   8.300   1.5358   0.01415   0.00857  -0.1416  0.3798  1.0000  -2.3996   0.0000   0.0000   0.0000   0.3284
   8.400   1.5415   0.01439   0.00879  -0.1408  0.3747  1.0000  -2.4271   0.0000   0.0000   0.0000   0.3274
   8.500   1.5479   0.01460   0.00900  -0.1401  0.3697  1.0000  -2.4559   0.0000   0.0000   0.0000   0.3264
   8.600   1.5536   0.01484   0.00923  -0.1393  0.3647  1.0000  -2.4836   0.0000   0.0000   0.0000   0.3254
   8.700   1.5597   0.01508   0.00945  -0.1386  0.3597  1.0000  -2.5119   0.0000   0.0000   0.0000   0.3244
   8.800   1.5652   0.01533   0.00970  -0.1378  0.3543  1.0000  -2.5394   0.0000   0.0000   0.0000   0.3235
   8.900   1.5709   0.01559   0.00995  -0.1370  0.3490  1.0000  -2.5673   0.0000   0.0000   0.0000   0.3225
   9.000   1.5759   0.01588   0.01022  -0.1362  0.3435  1.0000  -2.5941   0.0000   0.0000   0.0000   0.3215
   9.100   1.5815   0.01616   0.01049  -0.1355  0.3378  1.0000  -2.6278   0.0000   0.0000   0.0000   0.3206
   9.200   1.5859   0.01649   0.01080  -0.1346  0.3322  1.0000  -2.6646   0.0000   0.0000   0.0000   0.3196
   9.300   1.5913   0.01678   0.01108  -0.1339  0.3263  1.0000  -2.7047   0.0000   0.0000   0.0000   0.3187
   9.400   1.5953   0.01715   0.01142  -0.1329  0.3211  1.0000  -2.7434   0.0000   0.0000   0.0000   0.3177
   9.500   1.6007   0.01745   0.01173  -0.1323  0.3153  1.0000  -2.7859   0.0000   0.0000   0.0000   0.3168
   9.600   1.6048   0.01783   0.01208  -0.1314  0.3102  1.0000  -2.8335   0.0000   0.0000   0.0000   0.3159
   9.700   1.6099   0.01817   0.01241  -0.1307  0.3046  1.0000  -2.8875   0.0000   0.0000   0.0000   0.3150
   9.800   1.6140   0.01856   0.01279  -0.1299  0.2996  1.0000  -2.9390   0.0000   0.0000   0.0000   0.3141
   9.900   1.6189   0.01892   0.01315  -0.1292  0.2942  1.0000  -2.9930   0.0000   0.0000   0.0000   0.3133
  10.000   1.6231   0.01932   0.01353  -0.1284  0.2892  1.0000  -3.0454   0.0000   0.0000   0.0000   0.3124
  10.100   1.6277   0.01971   0.01392  -0.1277  0.2838  1.0000  -3.0989   0.0000   0.0000   0.0000   0.3115
  10.200   1.6319   0.02012   0.01432  -0.1269  0.2787  1.0000  -3.1519   0.0000   0.0000   0.0000   0.3107
  10.300   1.6360   0.02055   0.01473  -0.1262  0.2735  1.0000  -3.2045   0.0000   0.0000   0.0000   0.3099
  10.400   1.6402   0.02097   0.01515  -0.1254  0.2686  1.0000  -3.2579   0.0000   0.0000   0.0000   0.3090
  10.500   1.6439   0.02144   0.01561  -0.1247  0.2637  1.0000  -3.3097   0.0000   0.0000   0.0000   0.3082
  10.600   1.6479   0.02189   0.01605  -0.1240  0.2589  1.0000  -3.3630   0.0000   0.0000   0.0000   0.3074
  10.700   1.6512   0.02239   0.01654  -0.1232  0.2539  1.0000  -3.4141   0.0000   0.0000   0.0000   0.3066
  10.800   1.6550   0.02287   0.01701  -0.1225  0.2488  1.0000  -3.4670   0.0000   0.0000   0.0000   0.3058
  10.900   1.6576   0.02342   0.01755  -0.1217  0.2437  1.0000  -3.5160   0.0000   0.0000   0.0000   0.3050
  11.000   1.6614   0.02391   0.01803  -0.1210  0.2382  1.0000  -3.5696   0.0000   0.0000   0.0000   0.3042
  11.100   1.6638   0.02450   0.01860  -0.1202  0.2331  1.0000  -3.6181   0.0000   0.0000   0.0000   0.3034
  11.200   1.6673   0.02502   0.01911  -0.1195  0.2273  1.0000  -3.6713   0.0000   0.0000   0.0000   0.3027
  11.300   1.6701   0.02559   0.01967  -0.1187  0.2220  1.0000  -3.7217   0.0000   0.0000   0.0000   0.3019
  11.400   1.6723   0.02621   0.02026  -0.1179  0.2166  1.0000  -3.7704   0.0000   0.0000   0.0000   0.3011
  11.500   1.6753   0.02677   0.02082  -0.1172  0.2112  1.0000  -3.8222   0.0000   0.0000   0.0000   0.3004
  11.600   1.6770   0.02744   0.02146  -0.1164  0.2063  1.0000  -3.8693   0.0000   0.0000   0.0000   0.2996
  11.700   1.6800   0.02801   0.02203  -0.1157  0.2011  1.0000  -3.9218   0.0000   0.0000   0.0000   0.2989
  11.800   1.6820   0.02867   0.02267  -0.1150  0.1964  1.0000  -3.9703   0.0000   0.0000   0.0000   0.2982
  11.900   1.6844   0.02930   0.02329  -0.1143  0.1916  1.0000  -4.0207   0.0000   0.0000   0.0000   0.2975
  12.000   1.6866   0.02995   0.02394  -0.1136  0.1871  1.0000  -4.0703   0.0000   0.0000   0.0000   0.2967
  12.100   1.6886   0.03062   0.02460  -0.1128  0.1825  1.0000  -4.1193   0.0000   0.0000   0.0000   0.2960
  12.200   1.6908   0.03127   0.02525  -0.1121  0.1781  1.0000  -4.1696   0.0000   0.0000   0.0000   0.2953
  12.300   1.6923   0.03198   0.02595  -0.1114  0.1735  1.0000  -4.2173   0.0000   0.0000   0.0000   0.2946
  12.400   1.6946   0.03264   0.02661  -0.1107  0.1690  1.0000  -4.2681   0.0000   0.0000   0.0000   0.2939
  12.600   1.6979   0.03407   0.02803  -0.1094  0.1603  1.0000  -4.3654   0.0000   0.0000   0.0000   0.2926
  12.700   1.6988   0.03486   0.02880  -0.1086  0.1563  1.0000  -4.4110   0.0000   0.0000   0.0000   0.2919
  12.800   1.7008   0.03558   0.02952  -0.1080  0.1521  1.0000  -4.4612   0.0000   0.0000   0.0000   0.2913
  12.900   1.7015   0.03640   0.03033  -0.1073  0.1483  1.0000  -4.5064   0.0000   0.0000   0.0000   0.2906
  13.000   1.7032   0.03715   0.03108  -0.1067  0.1444  1.0000  -4.5558   0.0000   0.0000   0.0000   0.2900
  13.100   1.7036   0.03801   0.03193  -0.1060  0.1409  1.0000  -4.5998   0.0000   0.0000   0.0000   0.2893
  13.200   1.7055   0.03875   0.03268  -0.1054  0.1369  1.0000  -4.6503   0.0000   0.0000   0.0000   0.2887
  13.300   1.7059   0.03963   0.03356  -0.1047  0.1335  1.0000  -4.6946   0.0000   0.0000   0.0000   0.2881
  13.400   1.7076   0.04041   0.03434  -0.1042  0.1297  1.0000  -4.7445   0.0000   0.0000   0.0000   0.2875
  13.500   1.7077   0.04134   0.03526  -0.1035  0.1265  1.0000  -4.7879   0.0000   0.0000   0.0000   0.2869
  13.600   1.7094   0.04213   0.03606  -0.1030  0.1229  1.0000  -4.8381   0.0000   0.0000   0.0000   0.2863
  13.700   1.7094   0.04308   0.03701  -0.1024  0.1197  1.0000  -4.8812   0.0000   0.0000   0.0000   0.2857
  13.800   1.7109   0.04391   0.03785  -0.1018  0.1162  1.0000  -4.9307   0.0000   0.0000   0.0000   0.2851
  13.900   1.7109   0.04489   0.03882  -0.1013  0.1131  1.0000  -4.9739   0.0000   0.0000   0.0000   0.2846
  14.000   1.7119   0.04578   0.03972  -0.1008  0.1099  1.0000  -5.0214   0.0000   0.0000   0.0000   0.2840
  14.100   1.7119   0.04677   0.04070  -0.1002  0.1069  1.0000  -5.0649   0.0000   0.0000   0.0000   0.2835
  14.200   1.7124   0.04772   0.04166  -0.0997  0.1040  1.0000  -5.1102   0.0000   0.0000   0.0000   0.2829
  14.300   1.7127   0.04869   0.04264  -0.0992  0.1011  1.0000  -5.1551   0.0000   0.0000   0.0000   0.2824
  14.400   1.7124   0.04974   0.04368  -0.0987  0.0985  1.0000  -5.1974   0.0000   0.0000   0.0000   0.2819
  14.500   1.7133   0.05068   0.04463  -0.0982  0.0956  1.0000  -5.2448   0.0000   0.0000   0.0000   0.2814
  14.600   1.7126   0.05179   0.04575  -0.0977  0.0931  1.0000  -5.2851   0.0000   0.0000   0.0000   0.2809
  14.700   1.7135   0.05274   0.04672  -0.0973  0.0905  1.0000  -5.3330   0.0000   0.0000   0.0000   0.2804
  14.800   1.7134   0.05381   0.04779  -0.0969  0.0880  1.0000  -5.3762   0.0000   0.0000   0.0000   0.2799
  14.900   1.7132   0.05490   0.04889  -0.0965  0.0858  1.0000  -5.4189   0.0000   0.0000   0.0000   0.2794
  15.000   1.7139   0.05590   0.04991  -0.0961  0.0834  1.0000  -5.4657   0.0000   0.0000   0.0000   0.2790
  15.100   1.7131   0.05707   0.05108  -0.0957  0.0813  1.0000  -5.5061   0.0000   0.0000   0.0000   0.2785
  15.200   1.7134   0.05813   0.05216  -0.0954  0.0792  1.0000  -5.5510   0.0000   0.0000   0.0000   0.2781
  15.300   1.7133   0.05924   0.05329  -0.0950  0.0771  1.0000  -5.5945   0.0000   0.0000   0.0000   0.2777
  15.400   1.7121   0.06047   0.05452  -0.0947  0.0753  1.0000  -5.6327   0.0000   0.0000   0.0000   0.2772
  15.500   1.7122   0.06156   0.05564  -0.0943  0.0735  1.0000  -5.6768   0.0000   0.0000   0.0000   0.2768
  15.600   1.7119   0.06270   0.05680  -0.0940  0.0716  1.0000  -5.7195   0.0000   0.0000   0.0000   0.2764
  15.700   1.7106   0.06398   0.05809  -0.0937  0.0699  1.0000  -5.7571   0.0000   0.0000   0.0000   0.2760
  15.800   1.7102   0.06516   0.05929  -0.0934  0.0682  1.0000  -5.7989   0.0000   0.0000   0.0000   0.2757
  15.900   1.7099   0.06634   0.06049  -0.0932  0.0664  1.0000  -5.8414   0.0000   0.0000   0.0000   0.2753
  16.000   1.7085   0.06766   0.06183  -0.0929  0.0648  1.0000  -5.8782   0.0000   0.0000   0.0000   0.2749
  16.100   1.7073   0.06896   0.06315  -0.0927  0.0634  1.0000  -5.9163   0.0000   0.0000   0.0000   0.2746
  16.200   1.7072   0.07014   0.06436  -0.0925  0.0617  1.0000  -5.9596   0.0000   0.0000   0.0000   0.2742
  16.300   1.7060   0.07146   0.06569  -0.0923  0.0601  1.0000  -5.9976   0.0000   0.0000   0.0000   0.2739
  16.500   1.7036   0.07413   0.06841  -0.0919  0.0572  1.0000  -6.0730   0.0000   0.0000   0.0000   0.2733
  16.600   1.7026   0.07546   0.06976  -0.0918  0.0557  1.0000  -6.1113   0.0000   0.0000   0.0000   0.2730
  16.700   1.7004   0.07693   0.07125  -0.0916  0.0545  1.0000  -6.1440   0.0000   0.0000   0.0000   0.2727
  16.800   1.6988   0.07834   0.07268  -0.0915  0.0532  1.0000  -6.1791   0.0000   0.0000   0.0000   0.2725
  16.900   1.6979   0.07964   0.07402  -0.0914  0.0517  1.0000  -6.2182   0.0000   0.0000   0.0000   0.2722
  17.000   1.6962   0.08107   0.07547  -0.0913  0.0504  1.0000  -6.2529   0.0000   0.0000   0.0000   0.2719
  17.100   1.6933   0.08266   0.07707  -0.0912  0.0493  1.0000  -6.2816   0.0000   0.0000   0.0000   0.2718
  17.200   1.6922   0.08404   0.07849  -0.0912  0.0480  1.0000  -6.3185   0.0000   0.0000   0.0000   0.2715
  17.300   1.6904   0.08551   0.07998  -0.0912  0.0467  1.0000  -6.3527   0.0000   0.0000   0.0000   0.2713
  17.400   1.6880   0.08707   0.08156  -0.0912  0.0456  1.0000  -6.3830   0.0000   0.0000   0.0000   0.2711
  17.500   1.6846   0.08878   0.08329  -0.0912  0.0446  1.0000  -6.4079   0.0000   0.0000   0.0000   0.2710
  17.600   1.6832   0.09023   0.08477  -0.0912  0.0435  1.0000  -6.4429   0.0000   0.0000   0.0000   0.2708
  17.700   1.6810   0.09178   0.08636  -0.0913  0.0423  1.0000  -6.4740   0.0000   0.0000   0.0000   0.2707
  17.800   1.6781   0.09344   0.08805  -0.0914  0.0413  1.0000  -6.5011   0.0000   0.0000   0.0000   0.2706
  17.900   1.6743   0.09525   0.08987  -0.0915  0.0405  1.0000  -6.5228   0.0000   0.0000   0.0000   0.2705
  18.000   1.6719   0.09686   0.09152  -0.0916  0.0396  1.0000  -6.5517   0.0000   0.0000   0.0000   0.2704
  18.100   1.6698   0.09844   0.09314  -0.0917  0.0386  1.0000  -6.5818   0.0000   0.0000   0.0000   0.2703
  18.200   1.6669   0.10013   0.09485  -0.0919  0.0377  1.0000  -6.6076   0.0000   0.0000   0.0000   0.2702
  18.300   1.6631   0.10194   0.09669  -0.0921  0.0369  1.0000  -6.6284   0.0000   0.0000   0.0000   0.2702
  18.400   1.6586   0.10385   0.09862  -0.0923  0.0362  1.0000  -6.6452   0.0000   0.0000   0.0000   0.2703
  18.500   1.6564   0.10548   0.10029  -0.0925  0.0354  1.0000  -6.6745   0.0000   0.0000   0.0000   0.2702
  18.600   1.6542   0.10709   0.10194  -0.0928  0.0345  1.0000  -6.7108   0.0000   0.0000   0.0000   0.2702
  18.700   1.6511   0.10885   0.10374  -0.0930  0.0337  1.0000  -6.7407   0.0000   0.0000   0.0000   0.2702
  18.800   1.6475   0.11069   0.10560  -0.0934  0.0330  1.0000  -6.7678   0.0000   0.0000   0.0000   0.2702
  18.900   1.6431   0.11266   0.10760  -0.0938  0.0324  1.0000  -6.7888   0.0000   0.0000   0.0000   0.2704
  19.000   1.6398   0.11449   0.10946  -0.0941  0.0318  1.0000  -6.8160   0.0000   0.0000   0.0000   0.2705
  19.100   1.6378   0.11612   0.11113  -0.0945  0.0311  1.0000  -6.8517   0.0000   0.0000   0.0000   0.2705
  19.200   1.6352   0.11785   0.11289  -0.0948  0.0304  1.0000  -6.8837   0.0000   0.0000   0.0000   0.2705
  19.300   1.6319   0.11969   0.11477  -0.0953  0.0297  1.0000  -6.9104   0.0000   0.0000   0.0000   0.2707
  19.400   1.6282   0.12160   0.11670  -0.0958  0.0292  1.0000  -6.9345   0.0000   0.0000   0.0000   0.2708
  19.500   1.6238   0.12364   0.11876  -0.0963  0.0287  1.0000  -6.9527   0.0000   0.0000   0.0000   0.2711
  19.600   1.6203   0.12555   0.12071  -0.0969  0.0282  1.0000  -6.9760   0.0000   0.0000   0.0000   0.2713
  19.700   1.6185   0.12719   0.12239  -0.0973  0.0276  1.0000  -7.0111   0.0000   0.0000   0.0000   0.2714
  19.800   1.6162   0.12890   0.12415  -0.0978  0.0270  1.0000  -7.0426   0.0000   0.0000   0.0000   0.2715
  19.900   1.6131   0.13074   0.12602  -0.0984  0.0264  1.0000  -7.0689   0.0000   0.0000   0.0000   0.2717
  20.000   1.6099   0.13262   0.12792  -0.0990  0.0260  1.0000  -7.0932   0.0000   0.0000   0.0000   0.2719


