xflr5 v6.57

 Calculated polar for: rev_root_140

 1 1 Reynolds number fixed          Mach number fixed         

 xtrf =   1.000 (top)        1.000 (bottom)
 Mach =   0.000     Re =     0.680 e 6     Ncrit =   9.000

  alpha     CL        CD       CDp       Cm    Top Xtr Bot Xtr   Cpmin    Chinge    XCp    
 ------- -------- --------- --------- -------- ------- ------- -------- --------- ---------
 -10.000  -0.4016   0.02232   0.01756  -0.1471  0.8252  0.0202  -6.3780   0.0000   0.0000   0.0000  -0.1392
  -9.900  -0.3923   0.02182   0.01703  -0.1474  0.8233  0.0204  -6.2871   0.0000   0.0000   0.0000  -0.1488
  -9.800  -0.3825   0.02145   0.01665  -0.1477  0.8214  0.0206  -6.1885   0.0000   0.0000   0.0000  -0.1593
  -9.700  -0.3724   0.02115   0.01631  -0.1479  0.8198  0.0208  -6.0876   0.0000   0.0000   0.0000  -0.1706
  -9.600  -0.3622   0.02086   0.01598  -0.1481  0.8183  0.0210  -5.9876   0.0000   0.0000   0.0000  -0.1827
  -9.500  -0.3519   0.02057   0.01563  -0.1483  0.8169  0.0212  -5.8894   0.0000   0.0000   0.0000  -0.1955
  -9.400  -0.3416   0.02025   0.01527  -0.1485  0.8152  0.0214  -5.7934   0.0000   0.0000   0.0000  -0.2092
  -9.300  -0.3313   0.01993   0.01491  -0.1487  0.8135  0.0216  -5.6990   0.0000   0.0000   0.0000  -0.2236
  -9.200  -0.3210   0.01957   0.01450  -0.1489  0.8118  0.0218  -5.6082   0.0000   0.0000   0.0000  -0.2390
  -9.100  -0.3108   0.01919   0.01405  -0.1491  0.8103  0.0220  -5.5205   0.0000   0.0000   0.0000  -0.2554
  -9.000  -0.3004   0.01880   0.01360  -0.1493  0.8089  0.0222  -5.4340   0.0000   0.0000   0.0000  -0.2731
  -8.900  -0.2899   0.01844   0.01315  -0.1495  0.8076  0.0224  -5.3472   0.0000   0.0000   0.0000  -0.2922
  -8.800  -0.2794   0.01808   0.01273  -0.1496  0.8061  0.0226  -5.2605   0.0000   0.0000   0.0000  -0.3128
  -8.700  -0.2688   0.01775   0.01234  -0.1498  0.8044  0.0228  -5.1732   0.0000   0.0000   0.0000  -0.3351
  -8.600  -0.2581   0.01744   0.01197  -0.1500  0.8028  0.0230  -5.0850   0.0000   0.0000   0.0000  -0.3595
  -8.500  -0.2473   0.01717   0.01163  -0.1501  0.8013  0.0232  -4.9957   0.0000   0.0000   0.0000  -0.3863
  -8.400  -0.2363   0.01694   0.01133  -0.1502  0.8000  0.0233  -4.9050   0.0000   0.0000   0.0000  -0.4158
  -8.300  -0.2255   0.01663   0.01096  -0.1504  0.7988  0.0234  -4.8208   0.0000   0.0000   0.0000  -0.4478
  -8.200  -0.2157   0.01597   0.01024  -0.1506  0.7975  0.0237  -4.7573   0.0000   0.0000   0.0000  -0.4802
  -8.100  -0.2052   0.01559   0.00986  -0.1507  0.7960  0.0240  -4.6780   0.0000   0.0000   0.0000  -0.5177
  -8.000  -0.1944   0.01533   0.00957  -0.1508  0.7944  0.0242  -4.5934   0.0000   0.0000   0.0000  -0.5605
  -7.900  -0.1834   0.01510   0.00934  -0.1510  0.7930  0.0245  -4.5073   0.0000   0.0000   0.0000  -0.6090
  -7.800  -0.1724   0.01490   0.00912  -0.1511  0.7916  0.0247  -4.4212   0.0000   0.0000   0.0000  -0.6641
  -7.700  -0.1613   0.01471   0.00890  -0.1512  0.7904  0.0249  -4.3358   0.0000   0.0000   0.0000  -0.7272
  -7.600  -0.1501   0.01454   0.00869  -0.1513  0.7892  0.0252  -4.2504   0.0000   0.0000   0.0000  -0.8001
  -7.500  -0.1388   0.01437   0.00849  -0.1514  0.7881  0.0255  -4.1655   0.0000   0.0000   0.0000  -0.8852
  -7.400  -0.1277   0.01420   0.00830  -0.1515  0.7865  0.0258  -4.0834   0.0000   0.0000   0.0000  -0.9841
  -7.300  -0.1165   0.01403   0.00810  -0.1516  0.7849  0.0262  -4.0084   0.0000   0.0000   0.0000  -1.1025
  -7.200  -0.1053   0.01386   0.00790  -0.1517  0.7834  0.0265  -3.9341   0.0000   0.0000   0.0000  -1.2465
  -7.100  -0.0940   0.01370   0.00770  -0.1518  0.7819  0.0268  -3.8606   0.0000   0.0000   0.0000  -1.4257
  -7.000  -0.0827   0.01355   0.00751  -0.1519  0.7806  0.0270  -3.7875   0.0000   0.0000   0.0000  -1.6549
  -6.900  -0.0713   0.01342   0.00733  -0.1520  0.7794  0.0272  -3.7146   0.0000   0.0000   0.0000  -1.9588
  -6.800  -0.0603   0.01311   0.00699  -0.1522  0.7782  0.0275  -3.6495   0.0000   0.0000   0.0000  -2.3627
  -6.700  -0.0494   0.01281   0.00670  -0.1523  0.7766  0.0279  -3.5815   0.0000   0.0000   0.0000  -2.9431
  -6.600  -0.0382   0.01261   0.00650  -0.1524  0.7752  0.0282  -3.5087   0.0000   0.0000   0.0000  -3.8801
  -6.500  -0.0269   0.01246   0.00633  -0.1525  0.7737  0.0286  -3.4346   0.0000   0.0000   0.0000  -5.6179
  -6.400  -0.0155   0.01232   0.00618  -0.1526  0.7724  0.0289  -3.3608   0.0000   0.0000   0.0000  -9.9198
  -6.300  -0.0041   0.01218   0.00602  -0.1528  0.7711  0.0293  -3.2878   0.0000   0.0000   0.0000  -38.2493
  -6.200   0.0074   0.01206   0.00587  -0.1529  0.7699  0.0297  -3.2157   0.0000   0.0000   0.0000  21.6842
  -6.100   0.0189   0.01194   0.00572  -0.1530  0.7688  0.0301  -3.1441   0.0000   0.0000   0.0000   8.5995
  -6.000   0.0303   0.01182   0.00559  -0.1531  0.7673  0.0306  -3.0733   0.0000   0.0000   0.0000   5.4613
  -5.900   0.0417   0.01172   0.00547  -0.1532  0.7658  0.0311  -3.0026   0.0000   0.0000   0.0000   4.0312
  -5.800   0.0532   0.01164   0.00536  -0.1532  0.7644  0.0314  -2.9318   0.0000   0.0000   0.0000   3.2131
  -5.700   0.0645   0.01138   0.00510  -0.1534  0.7631  0.0321  -2.8663   0.0000   0.0000   0.0000   2.6955
  -5.600   0.0760   0.01123   0.00495  -0.1535  0.7619  0.0327  -2.7964   0.0000   0.0000   0.0000   2.3273
  -5.500   0.0875   0.01112   0.00482  -0.1537  0.7607  0.0333  -2.7264   0.0000   0.0000   0.0000   2.0537
  -5.400   0.0992   0.01102   0.00470  -0.1538  0.7596  0.0339  -2.6573   0.0000   0.0000   0.0000   1.8430
  -5.300   0.1108   0.01093   0.00459  -0.1539  0.7584  0.0346  -2.5958   0.0000   0.0000   0.0000   1.6764
  -5.200   0.1222   0.01083   0.00448  -0.1540  0.7569  0.0354  -2.5360   0.0000   0.0000   0.0000   1.5424
  -5.100   0.1338   0.01074   0.00437  -0.1541  0.7554  0.0361  -2.4767   0.0000   0.0000   0.0000   1.4309
  -5.000   0.1452   0.01054   0.00418  -0.1542  0.7540  0.0372  -2.4189   0.0000   0.0000   0.0000   1.3381
  -4.900   0.1568   0.01043   0.00407  -0.1544  0.7527  0.0383  -2.3583   0.0000   0.0000   0.0000   1.2580
  -4.800   0.1684   0.01035   0.00397  -0.1545  0.7514  0.0397  -2.2988   0.0000   0.0000   0.0000   1.1886
  -4.700   0.1801   0.01025   0.00385  -0.1546  0.7502  0.0411  -2.2410   0.0000   0.0000   0.0000   1.1279
  -4.600   0.1918   0.01013   0.00372  -0.1547  0.7490  0.0431  -2.1820   0.0000   0.0000   0.0000   1.0748
  -4.500   0.2033   0.01005   0.00364  -0.1548  0.7475  0.0454  -2.1236   0.0000   0.0000   0.0000   1.0281
  -4.400   0.2148   0.00992   0.00355  -0.1549  0.7459  0.0482  -2.0655   0.0000   0.0000   0.0000   0.9866
  -4.300   0.2264   0.00985   0.00347  -0.1550  0.7444  0.0514  -2.0073   0.0000   0.0000   0.0000   0.9490
  -4.200   0.2379   0.00975   0.00339  -0.1551  0.7429  0.0550  -1.9504   0.0000   0.0000   0.0000   0.9151
  -4.100   0.2495   0.00967   0.00331  -0.1553  0.7415  0.0586  -1.8978   0.0000   0.0000   0.0000   0.8842
  -4.000   0.2612   0.00962   0.00324  -0.1554  0.7402  0.0626  -1.8449   0.0000   0.0000   0.0000   0.8560
  -3.900   0.2729   0.00954   0.00316  -0.1555  0.7390  0.0667  -1.7917   0.0000   0.0000   0.0000   0.8302
  -3.800   0.2845   0.00946   0.00310  -0.1556  0.7376  0.0711  -1.7391   0.0000   0.0000   0.0000   0.8067
  -3.700   0.2960   0.00938   0.00304  -0.1557  0.7360  0.0759  -1.6867   0.0000   0.0000   0.0000   0.7851
  -3.600   0.3075   0.00930   0.00299  -0.1558  0.7345  0.0814  -1.6341   0.0000   0.0000   0.0000   0.7650
  -3.500   0.3192   0.00923   0.00293  -0.1559  0.7330  0.0875  -1.5817   0.0000   0.0000   0.0000   0.7464
  -3.400   0.3308   0.00916   0.00288  -0.1561  0.7317  0.0941  -1.5296   0.0000   0.0000   0.0000   0.7290
  -3.300   0.3424   0.00910   0.00283  -0.1562  0.7304  0.1012  -1.4777   0.0000   0.0000   0.0000   0.7128
  -3.200   0.3542   0.00905   0.00278  -0.1563  0.7292  0.1087  -1.4260   0.0000   0.0000   0.0000   0.6976
  -3.100   0.3658   0.00899   0.00275  -0.1565  0.7279  0.1169  -1.3748   0.0000   0.0000   0.0000   0.6835
  -3.000   0.3773   0.00892   0.00272  -0.1566  0.7264  0.1261  -1.3244   0.0000   0.0000   0.0000   0.6703
  -2.900   0.3889   0.00886   0.00269  -0.1567  0.7248  0.1356  -1.2742   0.0000   0.0000   0.0000   0.6579
  -2.800   0.4004   0.00880   0.00265  -0.1568  0.7232  0.1453  -1.2244   0.0000   0.0000   0.0000   0.6461
  -2.700   0.4120   0.00874   0.00262  -0.1569  0.7217  0.1552  -1.1749   0.0000   0.0000   0.0000   0.6350
  -2.600   0.4237   0.00868   0.00258  -0.1570  0.7202  0.1657  -1.1259   0.0000   0.0000   0.0000   0.6245
  -2.500   0.4354   0.00864   0.00256  -0.1572  0.7189  0.1770  -1.0771   0.0000   0.0000   0.0000   0.6145
  -2.400   0.4469   0.00859   0.00254  -0.1573  0.7173  0.1887  -1.0319   0.0000   0.0000   0.0000   0.6051
  -2.300   0.4584   0.00853   0.00252  -0.1574  0.7155  0.2005  -0.9886   0.0000   0.0000   0.0000   0.5962
  -2.200   0.4699   0.00847   0.00250  -0.1575  0.7137  0.2128  -0.9455   0.0000   0.0000   0.0000   0.5878
  -2.100   0.4815   0.00842   0.00248  -0.1576  0.7120  0.2255  -0.9027   0.0000   0.0000   0.0000   0.5797
  -2.000   0.4931   0.00837   0.00246  -0.1577  0.7105  0.2383  -0.8603   0.0000   0.0000   0.0000   0.5719
  -1.900   0.5048   0.00833   0.00243  -0.1578  0.7091  0.2502  -0.8310   0.0000   0.0000   0.0000   0.5645
  -1.800   0.5165   0.00831   0.00242  -0.1580  0.7078  0.2617  -0.8391   0.0000   0.0000   0.0000   0.5575
  -1.700   0.5280   0.00826   0.00242  -0.1581  0.7061  0.2741  -0.8470   0.0000   0.0000   0.0000   0.5508
  -1.600   0.5395   0.00821   0.00241  -0.1582  0.7043  0.2877  -0.8549   0.0000   0.0000   0.0000   0.5443
  -1.500   0.5511   0.00817   0.00240  -0.1583  0.7026  0.3015  -0.8628   0.0000   0.0000   0.0000   0.5382
  -1.300   0.5743   0.00809   0.00238  -0.1585  0.6995  0.3294  -0.8789   0.0000   0.0000   0.0000   0.5265
  -1.200   0.5859   0.00806   0.00237  -0.1586  0.6981  0.3459  -0.8869   0.0000   0.0000   0.0000   0.5211
  -1.100   0.5975   0.00802   0.00237  -0.1587  0.6964  0.3626  -0.8949   0.0000   0.0000   0.0000   0.5158
  -1.000   0.6090   0.00797   0.00238  -0.1588  0.6946  0.3789  -0.9028   0.0000   0.0000   0.0000   0.5108
  -0.900   0.6205   0.00793   0.00238  -0.1589  0.6927  0.3950  -0.9116   0.0000   0.0000   0.0000   0.5059
  -0.800   0.6320   0.00789   0.00238  -0.1590  0.6909  0.4113  -0.9208   0.0000   0.0000   0.0000   0.5012
  -0.700   0.6436   0.00786   0.00238  -0.1591  0.6893  0.4277  -0.9300   0.0000   0.0000   0.0000   0.4967
  -0.600   0.6552   0.00783   0.00237  -0.1592  0.6877  0.4446  -0.9392   0.0000   0.0000   0.0000   0.4923
  -0.500   0.6667   0.00779   0.00238  -0.1593  0.6857  0.4629  -0.9483   0.0000   0.0000   0.0000   0.4881
  -0.400   0.6781   0.00774   0.00239  -0.1594  0.6835  0.4815  -0.9575   0.0000   0.0000   0.0000   0.4840
  -0.300   0.6895   0.00770   0.00239  -0.1595  0.6813  0.4997  -0.9669   0.0000   0.0000   0.0000   0.4800
  -0.200   0.7010   0.00766   0.00240  -0.1596  0.6793  0.5192  -0.9764   0.0000   0.0000   0.0000   0.4762
  -0.100   0.7125   0.00763   0.00240  -0.1597  0.6776  0.5412  -0.9859   0.0000   0.0000   0.0000   0.4725
   0.000   0.7239   0.00759   0.00242  -0.1597  0.6758  0.5639  -0.9953   0.0000   0.0000   0.0000   0.4689
   0.200   0.7467   0.00751   0.00246  -0.1599  0.6715  0.6081  -1.0141   0.0000   0.0000   0.0000   0.4620
   0.300   0.7580   0.00748   0.00248  -0.1599  0.6695  0.6284  -1.0235   0.0000   0.0000   0.0000   0.4587
   0.400   0.7694   0.00745   0.00250  -0.1599  0.6677  0.6490  -1.0330   0.0000   0.0000   0.0000   0.4555
   0.500   0.7807   0.00744   0.00252  -0.1599  0.6661  0.6701  -1.0424   0.0000   0.0000   0.0000   0.4524
   0.600   0.7919   0.00742   0.00255  -0.1599  0.6639  0.6900  -1.0518   0.0000   0.0000   0.0000   0.4493
   0.700   0.8030   0.00740   0.00258  -0.1599  0.6616  0.7080  -1.0611   0.0000   0.0000   0.0000   0.4464
   0.800   0.8141   0.00739   0.00260  -0.1599  0.6594  0.7252  -1.0705   0.0000   0.0000   0.0000   0.4435
   0.900   0.8252   0.00738   0.00262  -0.1598  0.6573  0.7404  -1.0812   0.0000   0.0000   0.0000   0.4406
   1.000   0.8362   0.00739   0.00263  -0.1598  0.6553  0.7536  -1.0919   0.0000   0.0000   0.0000   0.4379
   1.100   0.8472   0.00738   0.00266  -0.1597  0.6525  0.7654  -1.1026   0.0000   0.0000   0.0000   0.4352
   1.200   0.8582   0.00738   0.00268  -0.1597  0.6497  0.7762  -1.1133   0.0000   0.0000   0.0000   0.4326
   1.300   0.8691   0.00739   0.00269  -0.1596  0.6472  0.7869  -1.1240   0.0000   0.0000   0.0000   0.4300
   1.400   0.8800   0.00741   0.00271  -0.1595  0.6449  0.7976  -1.1347   0.0000   0.0000   0.0000   0.4275
   1.500   0.8908   0.00740   0.00273  -0.1594  0.6420  0.8082  -1.1457   0.0000   0.0000   0.0000   0.4250
   1.800   0.9227   0.00743   0.00280  -0.1590  0.6344  0.8397  -1.1783   0.0000   0.0000   0.0000   0.4180
   1.900   0.9332   0.00743   0.00283  -0.1588  0.6317  0.8503  -1.1891   0.0000   0.0000   0.0000   0.4157
   2.000   0.9436   0.00742   0.00285  -0.1586  0.6290  0.8606  -1.1999   0.0000   0.0000   0.0000   0.4135
   2.100   0.9537   0.00743   0.00287  -0.1584  0.6264  0.8712  -1.2111   0.0000   0.0000   0.0000   0.4113
   2.200   0.9635   0.00744   0.00289  -0.1580  0.6241  0.8822  -1.2236   0.0000   0.0000   0.0000   0.4092
   2.300   0.9733   0.00744   0.00291  -0.1577  0.6213  0.8940  -1.2360   0.0000   0.0000   0.0000   0.4071
   2.400   0.9825   0.00743   0.00294  -0.1572  0.6183  0.9075  -1.2481   0.0000   0.0000   0.0000   0.4049
   2.500   0.9909   0.00741   0.00294  -0.1566  0.6154  0.9250  -1.2596   0.0000   0.0000   0.0000   0.4028
   2.600   0.9991   0.00738   0.00292  -0.1558  0.6128  0.9521  -1.2710   0.0000   0.0000   0.0000   0.4006
   2.700   1.0117   0.00736   0.00292  -0.1562  0.6092  1.0000  -1.2856   0.0000   0.0000   0.0000   0.3988
   2.800   1.0230   0.00740   0.00294  -0.1562  0.6056  1.0000  -1.2992   0.0000   0.0000   0.0000   0.3971
   2.900   1.0341   0.00746   0.00297  -0.1563  0.6024  1.0000  -1.3127   0.0000   0.0000   0.0000   0.3953
   3.000   1.0455   0.00750   0.00300  -0.1564  0.5987  1.0000  -1.3264   0.0000   0.0000   0.0000   0.3936
   3.100   1.0567   0.00755   0.00303  -0.1564  0.5950  1.0000  -1.3401   0.0000   0.0000   0.0000   0.3920
   3.200   1.0676   0.00761   0.00306  -0.1564  0.5917  1.0000  -1.3536   0.0000   0.0000   0.0000   0.3903
   3.300   1.0789   0.00765   0.00310  -0.1565  0.5882  1.0000  -1.3673   0.0000   0.0000   0.0000   0.3887
   3.400   1.0900   0.00770   0.00314  -0.1565  0.5847  1.0000  -1.3809   0.0000   0.0000   0.0000   0.3871
   3.500   1.1009   0.00776   0.00317  -0.1565  0.5815  1.0000  -1.3944   0.0000   0.0000   0.0000   0.3856
   3.600   1.1120   0.00782   0.00322  -0.1565  0.5782  1.0000  -1.4081   0.0000   0.0000   0.0000   0.3840
   3.700   1.1230   0.00787   0.00326  -0.1566  0.5745  1.0000  -1.4217   0.0000   0.0000   0.0000   0.3825
   3.800   1.1338   0.00793   0.00330  -0.1565  0.5710  1.0000  -1.4355   0.0000   0.0000   0.0000   0.3811
   3.900   1.1446   0.00800   0.00335  -0.1565  0.5675  1.0000  -1.4495   0.0000   0.0000   0.0000   0.3796
   4.000   1.1556   0.00805   0.00340  -0.1565  0.5637  1.0000  -1.4647   0.0000   0.0000   0.0000   0.3782
   4.100   1.1662   0.00812   0.00345  -0.1565  0.5600  1.0000  -1.4799   0.0000   0.0000   0.0000   0.3768
   4.200   1.1769   0.00819   0.00350  -0.1565  0.5563  1.0000  -1.4954   0.0000   0.0000   0.0000   0.3754
   4.300   1.1877   0.00825   0.00356  -0.1564  0.5522  1.0000  -1.5113   0.0000   0.0000   0.0000   0.3740
   4.400   1.1981   0.00833   0.00361  -0.1563  0.5483  1.0000  -1.5269   0.0000   0.0000   0.0000   0.3727
   4.500   1.2088   0.00840   0.00367  -0.1563  0.5440  1.0000  -1.5428   0.0000   0.0000   0.0000   0.3713
   4.600   1.2192   0.00847   0.00373  -0.1562  0.5395  1.0000  -1.5585   0.0000   0.0000   0.0000   0.3700
   4.700   1.2294   0.00856   0.00380  -0.1561  0.5353  1.0000  -1.5751   0.0000   0.0000   0.0000   0.3687
   4.800   1.2400   0.00863   0.00386  -0.1560  0.5305  1.0000  -1.5920   0.0000   0.0000   0.0000   0.3674
   4.900   1.2500   0.00872   0.00393  -0.1559  0.5262  1.0000  -1.6085   0.0000   0.0000   0.0000   0.3662
   5.000   1.2605   0.00880   0.00399  -0.1558  0.5218  1.0000  -1.6254   0.0000   0.0000   0.0000   0.3649
   5.100   1.2707   0.00889   0.00406  -0.1557  0.5174  1.0000  -1.6421   0.0000   0.0000   0.0000   0.3637
   5.200   1.2807   0.00898   0.00414  -0.1555  0.5133  1.0000  -1.6587   0.0000   0.0000   0.0000   0.3625
   5.300   1.2910   0.00906   0.00421  -0.1554  0.5087  1.0000  -1.6782   0.0000   0.0000   0.0000   0.3613
   5.400   1.3008   0.00917   0.00430  -0.1552  0.5043  1.0000  -1.6976   0.0000   0.0000   0.0000   0.3601
   5.500   1.3110   0.00925   0.00438  -0.1551  0.4997  1.0000  -1.7176   0.0000   0.0000   0.0000   0.3589
   5.600   1.3208   0.00936   0.00446  -0.1550  0.4949  1.0000  -1.7372   0.0000   0.0000   0.0000   0.3578
   5.700   1.3306   0.00946   0.00455  -0.1548  0.4903  1.0000  -1.7569   0.0000   0.0000   0.0000   0.3566
   5.800   1.3404   0.00956   0.00463  -0.1546  0.4851  1.0000  -1.7766   0.0000   0.0000   0.0000   0.3555
   5.900   1.3498   0.00968   0.00473  -0.1543  0.4802  1.0000  -1.7960   0.0000   0.0000   0.0000   0.3543
   6.000   1.3596   0.00978   0.00482  -0.1541  0.4747  1.0000  -1.8158   0.0000   0.0000   0.0000   0.3532
   6.100   1.3688   0.00991   0.00492  -0.1539  0.4697  1.0000  -1.8383   0.0000   0.0000   0.0000   0.3521
   6.200   1.3785   0.01001   0.00502  -0.1537  0.4642  1.0000  -1.8630   0.0000   0.0000   0.0000   0.3510
   6.300   1.3875   0.01015   0.00512  -0.1533  0.4591  1.0000  -1.8869   0.0000   0.0000   0.0000   0.3499
   6.400   1.3971   0.01025   0.00522  -0.1531  0.4538  1.0000  -1.9117   0.0000   0.0000   0.0000   0.3489
   6.600   1.4154   0.01050   0.00544  -0.1526  0.4437  1.0000  -1.9604   0.0000   0.0000   0.0000   0.3467
   6.700   1.4240   0.01065   0.00556  -0.1522  0.4385  1.0000  -1.9842   0.0000   0.0000   0.0000   0.3457
   6.800   1.4332   0.01077   0.00567  -0.1519  0.4329  1.0000  -2.0088   0.0000   0.0000   0.0000   0.3446
   7.000   1.4504   0.01106   0.00592  -0.1512  0.4215  1.0000  -2.0567   0.0000   0.0000   0.0000   0.3425
   7.100   1.4583   0.01123   0.00606  -0.1507  0.4160  1.0000  -2.0800   0.0000   0.0000   0.0000   0.3415
   7.200   1.4672   0.01136   0.00618  -0.1503  0.4101  1.0000  -2.1045   0.0000   0.0000   0.0000   0.3405
   7.300   1.4750   0.01153   0.00633  -0.1498  0.4045  1.0000  -2.1277   0.0000   0.0000   0.0000   0.3394
   7.400   1.4834   0.01167   0.00646  -0.1494  0.3985  1.0000  -2.1577   0.0000   0.0000   0.0000   0.3384
   7.500   1.4911   0.01185   0.00661  -0.1489  0.3931  1.0000  -2.1876   0.0000   0.0000   0.0000   0.3374
   7.600   1.4989   0.01200   0.00675  -0.1484  0.3873  1.0000  -2.2179   0.0000   0.0000   0.0000   0.3364
   7.700   1.5058   0.01217   0.00690  -0.1477  0.3821  1.0000  -2.2468   0.0000   0.0000   0.0000   0.3353
   7.800   1.5130   0.01234   0.00706  -0.1471  0.3767  1.0000  -2.2763   0.0000   0.0000   0.0000   0.3343
   7.900   1.5198   0.01253   0.00722  -0.1464  0.3717  1.0000  -2.3053   0.0000   0.0000   0.0000   0.3332
   8.000   1.5270   0.01270   0.00738  -0.1458  0.3663  1.0000  -2.3351   0.0000   0.0000   0.0000   0.3322
   8.100   1.5336   0.01290   0.00756  -0.1451  0.3614  1.0000  -2.3639   0.0000   0.0000   0.0000   0.3312
   8.200   1.5406   0.01308   0.00774  -0.1445  0.3557  1.0000  -2.3935   0.0000   0.0000   0.0000   0.3302
   8.300   1.5470   0.01329   0.00793  -0.1438  0.3503  1.0000  -2.4221   0.0000   0.0000   0.0000   0.3292
   8.400   1.5534   0.01351   0.00812  -0.1431  0.3445  1.0000  -2.4509   0.0000   0.0000   0.0000   0.3282
   8.500   1.5596   0.01373   0.00833  -0.1424  0.3388  1.0000  -2.4794   0.0000   0.0000   0.0000   0.3272
   8.600   1.5651   0.01398   0.00855  -0.1416  0.3326  1.0000  -2.5070   0.0000   0.0000   0.0000   0.3262
   8.700   1.5712   0.01421   0.00877  -0.1408  0.3264  1.0000  -2.5355   0.0000   0.0000   0.0000   0.3252
   8.800   1.5761   0.01450   0.00903  -0.1399  0.3205  1.0000  -2.5622   0.0000   0.0000   0.0000   0.3242
   8.900   1.5818   0.01476   0.00927  -0.1392  0.3141  1.0000  -2.5902   0.0000   0.0000   0.0000   0.3232
   9.000   1.5870   0.01505   0.00953  -0.1384  0.3082  1.0000  -2.6194   0.0000   0.0000   0.0000   0.3223
   9.100   1.5919   0.01536   0.00982  -0.1375  0.3022  1.0000  -2.6557   0.0000   0.0000   0.0000   0.3213
   9.200   1.5975   0.01563   0.01008  -0.1368  0.2964  1.0000  -2.6968   0.0000   0.0000   0.0000   0.3204
   9.300   1.6020   0.01597   0.01039  -0.1360  0.2909  1.0000  -2.7369   0.0000   0.0000   0.0000   0.3194
   9.400   1.6079   0.01624   0.01066  -0.1353  0.2851  1.0000  -2.7874   0.0000   0.0000   0.0000   0.3185
   9.500   1.6127   0.01658   0.01097  -0.1345  0.2799  1.0000  -2.8406   0.0000   0.0000   0.0000   0.3176
   9.600   1.6180   0.01689   0.01127  -0.1338  0.2743  1.0000  -2.8958   0.0000   0.0000   0.0000   0.3167
   9.700   1.6229   0.01724   0.01161  -0.1330  0.2693  1.0000  -2.9497   0.0000   0.0000   0.0000   0.3158
   9.800   1.6278   0.01759   0.01194  -0.1323  0.2643  1.0000  -3.0042   0.0000   0.0000   0.0000   0.3149
   9.900   1.6326   0.01794   0.01228  -0.1316  0.2598  1.0000  -3.0588   0.0000   0.0000   0.0000   0.3141
  10.000   1.6376   0.01830   0.01263  -0.1309  0.2550  1.0000  -3.1141   0.0000   0.0000   0.0000   0.3132
  10.100   1.6422   0.01868   0.01300  -0.1301  0.2505  1.0000  -3.1686   0.0000   0.0000   0.0000   0.3124
  10.200   1.6469   0.01906   0.01337  -0.1294  0.2456  1.0000  -3.2239   0.0000   0.0000   0.0000   0.3115
  10.300   1.6512   0.01947   0.01377  -0.1287  0.2410  1.0000  -3.2778   0.0000   0.0000   0.0000   0.3107
  10.400   1.6555   0.01989   0.01417  -0.1280  0.2358  1.0000  -3.3321   0.0000   0.0000   0.0000   0.3098
  10.500   1.6597   0.02032   0.01458  -0.1272  0.2307  1.0000  -3.3865   0.0000   0.0000   0.0000   0.3090
  10.600   1.6634   0.02079   0.01503  -0.1265  0.2254  1.0000  -3.4390   0.0000   0.0000   0.0000   0.3082
  10.700   1.6676   0.02122   0.01546  -0.1258  0.2199  1.0000  -3.4941   0.0000   0.0000   0.0000   0.3074
  10.800   1.6708   0.02173   0.01595  -0.1250  0.2147  1.0000  -3.5455   0.0000   0.0000   0.0000   0.3066
  10.900   1.6745   0.02221   0.01641  -0.1243  0.2092  1.0000  -3.5993   0.0000   0.0000   0.0000   0.3058
  11.000   1.6779   0.02272   0.01690  -0.1235  0.2042  1.0000  -3.6518   0.0000   0.0000   0.0000   0.3050
  11.100   1.6809   0.02326   0.01742  -0.1227  0.1990  1.0000  -3.7034   0.0000   0.0000   0.0000   0.3042
  11.200   1.6844   0.02377   0.01792  -0.1220  0.1940  1.0000  -3.7572   0.0000   0.0000   0.0000   0.3034
  11.300   1.6869   0.02436   0.01848  -0.1212  0.1893  1.0000  -3.8071   0.0000   0.0000   0.0000   0.3027
  11.400   1.6906   0.02486   0.01898  -0.1205  0.1845  1.0000  -3.8623   0.0000   0.0000   0.0000   0.3019
  11.500   1.6933   0.02544   0.01955  -0.1198  0.1800  1.0000  -3.9133   0.0000   0.0000   0.0000   0.3012
  11.600   1.6966   0.02598   0.02008  -0.1191  0.1752  1.0000  -3.9671   0.0000   0.0000   0.0000   0.3004
  11.700   1.6993   0.02656   0.02065  -0.1184  0.1707  1.0000  -4.0190   0.0000   0.0000   0.0000   0.2997
  11.800   1.7019   0.02716   0.02123  -0.1176  0.1659  1.0000  -4.0708   0.0000   0.0000   0.0000   0.2989
  11.900   1.7047   0.02774   0.02181  -0.1169  0.1615  1.0000  -4.1234   0.0000   0.0000   0.0000   0.2982
  12.000   1.7067   0.02840   0.02245  -0.1162  0.1571  1.0000  -4.1731   0.0000   0.0000   0.0000   0.2975
  12.100   1.7095   0.02900   0.02304  -0.1155  0.1528  1.0000  -4.2259   0.0000   0.0000   0.0000   0.2968
  12.200   1.7110   0.02970   0.02373  -0.1147  0.1488  1.0000  -4.2740   0.0000   0.0000   0.0000   0.2960
  12.300   1.7137   0.03031   0.02434  -0.1140  0.1448  1.0000  -4.3271   0.0000   0.0000   0.0000   0.2954
  12.400   1.7149   0.03104   0.02505  -0.1132  0.1411  1.0000  -4.3742   0.0000   0.0000   0.0000   0.2946
  12.500   1.7177   0.03165   0.02566  -0.1126  0.1371  1.0000  -4.4279   0.0000   0.0000   0.0000   0.2940
  12.600   1.7189   0.03239   0.02639  -0.1119  0.1335  1.0000  -4.4756   0.0000   0.0000   0.0000   0.2933
  12.700   1.7212   0.03304   0.02705  -0.1112  0.1296  1.0000  -4.5278   0.0000   0.0000   0.0000   0.2926
  12.800   1.7223   0.03381   0.02780  -0.1105  0.1261  1.0000  -4.5753   0.0000   0.0000   0.0000   0.2919
  12.900   1.7244   0.03450   0.02849  -0.1098  0.1223  1.0000  -4.6270   0.0000   0.0000   0.0000   0.2912
  13.000   1.7254   0.03529   0.02927  -0.1091  0.1189  1.0000  -4.6741   0.0000   0.0000   0.0000   0.2906
  13.100   1.7274   0.03601   0.02999  -0.1085  0.1153  1.0000  -4.7256   0.0000   0.0000   0.0000   0.2899
  13.200   1.7281   0.03683   0.03081  -0.1078  0.1120  1.0000  -4.7721   0.0000   0.0000   0.0000   0.2893
  13.300   1.7298   0.03758   0.03156  -0.1072  0.1086  1.0000  -4.8227   0.0000   0.0000   0.0000   0.2887
  13.400   1.7302   0.03845   0.03242  -0.1065  0.1056  1.0000  -4.8678   0.0000   0.0000   0.0000   0.2880
  13.500   1.7320   0.03920   0.03318  -0.1059  0.1025  1.0000  -4.9193   0.0000   0.0000   0.0000   0.2874
  13.600   1.7325   0.04009   0.03405  -0.1053  0.0996  1.0000  -4.9650   0.0000   0.0000   0.0000   0.2868
  13.700   1.7342   0.04087   0.03484  -0.1047  0.0967  1.0000  -5.0161   0.0000   0.0000   0.0000   0.2862
  13.800   1.7350   0.04174   0.03571  -0.1041  0.0939  1.0000  -5.0636   0.0000   0.0000   0.0000   0.2856
  13.900   1.7362   0.04259   0.03656  -0.1036  0.0913  1.0000  -5.1127   0.0000   0.0000   0.0000   0.2851
  14.000   1.7374   0.04343   0.03741  -0.1030  0.0886  1.0000  -5.1623   0.0000   0.0000   0.0000   0.2845
  14.100   1.7379   0.04437   0.03835  -0.1025  0.0863  1.0000  -5.2084   0.0000   0.0000   0.0000   0.2839
  14.200   1.7396   0.04518   0.03918  -0.1020  0.0839  1.0000  -5.2603   0.0000   0.0000   0.0000   0.2834
  14.300   1.7402   0.04611   0.04011  -0.1015  0.0815  1.0000  -5.3074   0.0000   0.0000   0.0000   0.2828
  14.400   1.7410   0.04703   0.04104  -0.1010  0.0795  1.0000  -5.3554   0.0000   0.0000   0.0000   0.2823
  14.500   1.7420   0.04792   0.04194  -0.1005  0.0773  1.0000  -5.4044   0.0000   0.0000   0.0000   0.2817
  14.600   1.7419   0.04894   0.04296  -0.1000  0.0753  1.0000  -5.4486   0.0000   0.0000   0.0000   0.2812
  14.700   1.7431   0.04985   0.04388  -0.0995  0.0734  1.0000  -5.4983   0.0000   0.0000   0.0000   0.2807
  14.800   1.7438   0.05079   0.04484  -0.0991  0.0714  1.0000  -5.5466   0.0000   0.0000   0.0000   0.2802
  14.900   1.7435   0.05186   0.04592  -0.0986  0.0696  1.0000  -5.5898   0.0000   0.0000   0.0000   0.2797
  15.000   1.7446   0.05280   0.04687  -0.0982  0.0678  1.0000  -5.6397   0.0000   0.0000   0.0000   0.2792
  15.100   1.7451   0.05381   0.04789  -0.0978  0.0660  1.0000  -5.6866   0.0000   0.0000   0.0000   0.2787
  15.200   1.7446   0.05492   0.04901  -0.0974  0.0644  1.0000  -5.7294   0.0000   0.0000   0.0000   0.2783
  15.300   1.7454   0.05591   0.05002  -0.0970  0.0627  1.0000  -5.7780   0.0000   0.0000   0.0000   0.2778
  15.400   1.7459   0.05694   0.05107  -0.0967  0.0610  1.0000  -5.8254   0.0000   0.0000   0.0000   0.2773
  15.500   1.7456   0.05806   0.05220  -0.0963  0.0594  1.0000  -5.8688   0.0000   0.0000   0.0000   0.2769
  15.600   1.7456   0.05916   0.05332  -0.0959  0.0579  1.0000  -5.9137   0.0000   0.0000   0.0000   0.2765
  15.700   1.7459   0.06021   0.05439  -0.0956  0.0563  1.0000  -5.9604   0.0000   0.0000   0.0000   0.2760
  15.800   1.7453   0.06138   0.05557  -0.0953  0.0549  1.0000  -6.0027   0.0000   0.0000   0.0000   0.2756
  15.900   1.7444   0.06259   0.05680  -0.0949  0.0535  1.0000  -6.0431   0.0000   0.0000   0.0000   0.2752
  16.000   1.7449   0.06365   0.05788  -0.0947  0.0520  1.0000  -6.0910   0.0000   0.0000   0.0000   0.2748
  16.100   1.7444   0.06484   0.05909  -0.0944  0.0505  1.0000  -6.1336   0.0000   0.0000   0.0000   0.2744
  16.300   1.7430   0.06728   0.06157  -0.0939  0.0478  1.0000  -6.2169   0.0000   0.0000   0.0000   0.2737
  16.400   1.7423   0.06851   0.06281  -0.0936  0.0464  1.0000  -6.2588   0.0000   0.0000   0.0000   0.2733
  16.500   1.7408   0.06985   0.06417  -0.0934  0.0451  1.0000  -6.2964   0.0000   0.0000   0.0000   0.2730
  16.600   1.7397   0.07116   0.06549  -0.0932  0.0439  1.0000  -6.3357   0.0000   0.0000   0.0000   0.2727
  16.700   1.7390   0.07241   0.06677  -0.0930  0.0427  1.0000  -6.3774   0.0000   0.0000   0.0000   0.2723
  16.800   1.7375   0.07379   0.06817  -0.0928  0.0415  1.0000  -6.4146   0.0000   0.0000   0.0000   0.2720
  16.900   1.7352   0.07525   0.06964  -0.0927  0.0404  1.0000  -6.4482   0.0000   0.0000   0.0000   0.2718
  17.000   1.7342   0.07658   0.07100  -0.0925  0.0393  1.0000  -6.4877   0.0000   0.0000   0.0000   0.2715
  17.100   1.7330   0.07791   0.07236  -0.0924  0.0382  1.0000  -6.5265   0.0000   0.0000   0.0000   0.2712
  17.200   1.7309   0.07938   0.07384  -0.0923  0.0372  1.0000  -6.5602   0.0000   0.0000   0.0000   0.2709
  17.300   1.7282   0.08091   0.07540  -0.0922  0.0363  1.0000  -6.5909   0.0000   0.0000   0.0000   0.2707
  17.400   1.7267   0.08232   0.07684  -0.0921  0.0354  1.0000  -6.6277   0.0000   0.0000   0.0000   0.2704
  17.500   1.7255   0.08369   0.07824  -0.0920  0.0344  1.0000  -6.6658   0.0000   0.0000   0.0000   0.2702
  17.600   1.7233   0.08520   0.07977  -0.0920  0.0335  1.0000  -6.6989   0.0000   0.0000   0.0000   0.2700
  17.700   1.7206   0.08678   0.08138  -0.0920  0.0326  1.0000  -6.7289   0.0000   0.0000   0.0000   0.2698
  17.800   1.7181   0.08837   0.08299  -0.0920  0.0319  1.0000  -6.7595   0.0000   0.0000   0.0000   0.2696
  17.900   1.7168   0.08978   0.08444  -0.0920  0.0310  1.0000  -6.7967   0.0000   0.0000   0.0000   0.2694
  18.000   1.7147   0.09131   0.08599  -0.0920  0.0301  1.0000  -6.8296   0.0000   0.0000   0.0000   0.2693
  18.100   1.7120   0.09294   0.08764  -0.0921  0.0294  1.0000  -6.8588   0.0000   0.0000   0.0000   0.2691
  18.200   1.7087   0.09465   0.08938  -0.0922  0.0287  1.0000  -6.8847   0.0000   0.0000   0.0000   0.2690
  18.300   1.7065   0.09622   0.09098  -0.0923  0.0280  1.0000  -6.9187   0.0000   0.0000   0.0000   0.2689
  18.400   1.7049   0.09772   0.09251  -0.0924  0.0273  1.0000  -6.9611   0.0000   0.0000   0.0000   0.2688
  18.500   1.7024   0.09933   0.09416  -0.0926  0.0266  1.0000  -6.9985   0.0000   0.0000   0.0000   0.2687
  18.600   1.6995   0.10100   0.09585  -0.0927  0.0259  1.0000  -7.0328   0.0000   0.0000   0.0000   0.2686
  18.700   1.6960   0.10277   0.09765  -0.0929  0.0254  1.0000  -7.0626   0.0000   0.0000   0.0000   0.2686
  18.800   1.6926   0.10452   0.09942  -0.0931  0.0248  1.0000  -7.0934   0.0000   0.0000   0.0000   0.2685
  18.900   1.6905   0.10611   0.10105  -0.0933  0.0243  1.0000  -7.1318   0.0000   0.0000   0.0000   0.2685
  19.000   1.6880   0.10774   0.10272  -0.0936  0.0237  1.0000  -7.1682   0.0000   0.0000   0.0000   0.2684
  19.100   1.6850   0.10947   0.10448  -0.0938  0.0232  1.0000  -7.2006   0.0000   0.0000   0.0000   0.2684
  19.200   1.6819   0.11124   0.10628  -0.0942  0.0227  1.0000  -7.2316   0.0000   0.0000   0.0000   0.2685
  19.300   1.6781   0.11311   0.10817  -0.0945  0.0223  1.0000  -7.2583   0.0000   0.0000   0.0000   0.2685
  19.400   1.6741   0.11501   0.11010  -0.0949  0.0219  1.0000  -7.2830   0.0000   0.0000   0.0000   0.2686
  19.500   1.6709   0.11681   0.11194  -0.0953  0.0215  1.0000  -7.3122   0.0000   0.0000   0.0000   0.2687
  19.600   1.6687   0.11847   0.11364  -0.0956  0.0211  1.0000  -7.3480   0.0000   0.0000   0.0000   0.2687
  19.700   1.6658   0.12023   0.11543  -0.0961  0.0207  1.0000  -7.3794   0.0000   0.0000   0.0000   0.2688
  19.800   1.6630   0.12199   0.11724  -0.0965  0.0204  1.0000  -7.4102   0.0000   0.0000   0.0000   0.2689
  19.900   1.6595   0.12386   0.11914  -0.0970  0.0200  1.0000  -7.4368   0.0000   0.0000   0.0000   0.2691
  20.000   1.6561   0.12573   0.12104  -0.0975  0.0197  1.0000  -7.4631   0.0000   0.0000   0.0000   0.2692


