xflr5 v6.57

 Calculated polar for: rev_root_140

 1 1 Reynolds number fixed          Mach number fixed         

 xtrf =   1.000 (top)        1.000 (bottom)
 Mach =   0.000     Re =     0.660 e 6     Ncrit =   9.000

  alpha     CL        CD       CDp       Cm    Top Xtr Bot Xtr   Cpmin    Chinge    XCp    
 ------- -------- --------- --------- -------- ------- ------- -------- --------- ---------
 -10.000  -0.4003   0.02283   0.01815  -0.1470  0.8270  0.0205  -6.3367   0.0000   0.0000   0.0000  -0.1401
  -9.900  -0.3906   0.02246   0.01774  -0.1473  0.8255  0.0206  -6.2397   0.0000   0.0000   0.0000  -0.1501
  -9.800  -0.3807   0.02211   0.01737  -0.1475  0.8235  0.0208  -6.1413   0.0000   0.0000   0.0000  -0.1608
  -9.700  -0.3707   0.02179   0.01701  -0.1478  0.8217  0.0210  -6.0431   0.0000   0.0000   0.0000  -0.1722
  -9.600  -0.3606   0.02146   0.01663  -0.1480  0.8200  0.0212  -5.9465   0.0000   0.0000   0.0000  -0.1843
  -9.500  -0.3504   0.02115   0.01628  -0.1482  0.8185  0.0214  -5.8499   0.0000   0.0000   0.0000  -0.1971
  -9.400  -0.3402   0.02082   0.01588  -0.1484  0.8171  0.0217  -5.7562   0.0000   0.0000   0.0000  -0.2107
  -9.300  -0.3301   0.02044   0.01545  -0.1486  0.8155  0.0219  -5.6664   0.0000   0.0000   0.0000  -0.2252
  -9.200  -0.3199   0.02003   0.01498  -0.1489  0.8137  0.0221  -5.5801   0.0000   0.0000   0.0000  -0.2406
  -9.100  -0.3098   0.01960   0.01448  -0.1491  0.8121  0.0223  -5.4962   0.0000   0.0000   0.0000  -0.2570
  -9.000  -0.2995   0.01919   0.01398  -0.1493  0.8105  0.0225  -5.4127   0.0000   0.0000   0.0000  -0.2746
  -8.900  -0.2891   0.01879   0.01351  -0.1495  0.8091  0.0227  -5.3284   0.0000   0.0000   0.0000  -0.2937
  -8.800  -0.2786   0.01843   0.01306  -0.1496  0.8079  0.0229  -5.2429   0.0000   0.0000   0.0000  -0.3144
  -8.700  -0.2680   0.01811   0.01266  -0.1498  0.8064  0.0230  -5.1563   0.0000   0.0000   0.0000  -0.3370
  -8.600  -0.2573   0.01781   0.01230  -0.1500  0.8047  0.0232  -5.0683   0.0000   0.0000   0.0000  -0.3616
  -8.500  -0.2464   0.01756   0.01198  -0.1501  0.8031  0.0233  -4.9785   0.0000   0.0000   0.0000  -0.3886
  -8.400  -0.2363   0.01701   0.01137  -0.1503  0.8016  0.0235  -4.9025   0.0000   0.0000   0.0000  -0.4163
  -8.300  -0.2263   0.01643   0.01074  -0.1505  0.8003  0.0238  -4.8287   0.0000   0.0000   0.0000  -0.4461
  -8.200  -0.2157   0.01608   0.01037  -0.1506  0.7990  0.0240  -4.7475   0.0000   0.0000   0.0000  -0.4804
  -8.100  -0.2048   0.01583   0.01009  -0.1507  0.7979  0.0243  -4.6620   0.0000   0.0000   0.0000  -0.5193
  -8.000  -0.1939   0.01560   0.00984  -0.1509  0.7963  0.0245  -4.5761   0.0000   0.0000   0.0000  -0.5625
  -7.900  -0.1830   0.01538   0.00962  -0.1510  0.7948  0.0247  -4.4904   0.0000   0.0000   0.0000  -0.6112
  -7.800  -0.1720   0.01518   0.00939  -0.1511  0.7933  0.0250  -4.4055   0.0000   0.0000   0.0000  -0.6665
  -7.700  -0.1609   0.01498   0.00916  -0.1512  0.7919  0.0252  -4.3215   0.0000   0.0000   0.0000  -0.7297
  -7.600  -0.1497   0.01479   0.00893  -0.1513  0.7907  0.0255  -4.2376   0.0000   0.0000   0.0000  -0.8027
  -7.500  -0.1385   0.01461   0.00872  -0.1515  0.7895  0.0258  -4.1542   0.0000   0.0000   0.0000  -0.8878
  -7.400  -0.1273   0.01444   0.00850  -0.1516  0.7884  0.0262  -4.0713   0.0000   0.0000   0.0000  -0.9886
  -7.300  -0.1161   0.01427   0.00830  -0.1517  0.7868  0.0265  -3.9972   0.0000   0.0000   0.0000  -1.1074
  -7.200  -0.1049   0.01410   0.00810  -0.1518  0.7852  0.0268  -3.9240   0.0000   0.0000   0.0000  -1.2520
  -7.100  -0.0937   0.01394   0.00790  -0.1518  0.7837  0.0270  -3.8510   0.0000   0.0000   0.0000  -1.4324
  -7.000  -0.0823   0.01380   0.00772  -0.1519  0.7822  0.0272  -3.7780   0.0000   0.0000   0.0000  -1.6637
  -6.900  -0.0715   0.01344   0.00733  -0.1521  0.7808  0.0276  -3.7147   0.0000   0.0000   0.0000  -1.9546
  -6.800  -0.0605   0.01315   0.00703  -0.1522  0.7796  0.0279  -3.6460   0.0000   0.0000   0.0000  -2.3568
  -6.700  -0.0492   0.01296   0.00682  -0.1523  0.7785  0.0282  -3.5727   0.0000   0.0000   0.0000  -2.9547
  -6.600  -0.0380   0.01279   0.00665  -0.1524  0.7770  0.0286  -3.4990   0.0000   0.0000   0.0000  -3.8986
  -6.500  -0.0267   0.01264   0.00649  -0.1526  0.7755  0.0289  -3.4255   0.0000   0.0000   0.0000  -5.6494
  -6.400  -0.0154   0.01250   0.00634  -0.1527  0.7741  0.0293  -3.3527   0.0000   0.0000   0.0000  -9.9940
  -6.300  -0.0040   0.01236   0.00618  -0.1528  0.7727  0.0297  -3.2808   0.0000   0.0000   0.0000  -39.0405
  -6.200   0.0074   0.01222   0.00602  -0.1529  0.7714  0.0301  -3.2096   0.0000   0.0000   0.0000  21.5366
  -6.100   0.0189   0.01210   0.00586  -0.1530  0.7702  0.0305  -3.1388   0.0000   0.0000   0.0000   8.6033
  -6.000   0.0304   0.01200   0.00572  -0.1531  0.7690  0.0310  -3.0678   0.0000   0.0000   0.0000   5.4315
  -5.900   0.0419   0.01191   0.00560  -0.1531  0.7677  0.0314  -2.9972   0.0000   0.0000   0.0000   4.0144
  -5.800   0.0532   0.01168   0.00538  -0.1533  0.7662  0.0319  -2.9312   0.0000   0.0000   0.0000   3.2189
  -5.700   0.0645   0.01149   0.00519  -0.1534  0.7648  0.0325  -2.8620   0.0000   0.0000   0.0000   2.6977
  -5.600   0.0760   0.01137   0.00507  -0.1536  0.7634  0.0331  -2.7916   0.0000   0.0000   0.0000   2.3286
  -5.500   0.0875   0.01126   0.00494  -0.1537  0.7621  0.0337  -2.7221   0.0000   0.0000   0.0000   2.0551
  -5.400   0.0991   0.01115   0.00481  -0.1538  0.7609  0.0344  -2.6538   0.0000   0.0000   0.0000   1.8444
  -5.300   0.1107   0.01105   0.00469  -0.1539  0.7598  0.0351  -2.5925   0.0000   0.0000   0.0000   1.6772
  -5.200   0.1223   0.01098   0.00457  -0.1540  0.7587  0.0357  -2.5325   0.0000   0.0000   0.0000   1.5412
  -5.100   0.1337   0.01080   0.00440  -0.1541  0.7572  0.0366  -2.4756   0.0000   0.0000   0.0000   1.4316
  -5.000   0.1452   0.01065   0.00427  -0.1543  0.7557  0.0377  -2.4157   0.0000   0.0000   0.0000   1.3386
  -4.900   0.1567   0.01055   0.00416  -0.1544  0.7543  0.0388  -2.3555   0.0000   0.0000   0.0000   1.2586
  -4.800   0.1683   0.01047   0.00406  -0.1545  0.7529  0.0401  -2.2968   0.0000   0.0000   0.0000   1.1891
  -4.700   0.1800   0.01033   0.00391  -0.1546  0.7516  0.0417  -2.2397   0.0000   0.0000   0.0000   1.1288
  -4.600   0.1916   0.01023   0.00381  -0.1547  0.7503  0.0437  -2.1802   0.0000   0.0000   0.0000   1.0757
  -4.400   0.2148   0.01004   0.00362  -0.1550  0.7477  0.0488  -2.0635   0.0000   0.0000   0.0000   0.9867
  -4.300   0.2263   0.00995   0.00353  -0.1551  0.7461  0.0521  -2.0059   0.0000   0.0000   0.0000   0.9493
  -4.200   0.2378   0.00986   0.00346  -0.1552  0.7445  0.0556  -1.9490   0.0000   0.0000   0.0000   0.9154
  -4.100   0.2494   0.00977   0.00338  -0.1553  0.7430  0.0593  -1.8966   0.0000   0.0000   0.0000   0.8846
  -4.000   0.2610   0.00971   0.00331  -0.1554  0.7416  0.0632  -1.8441   0.0000   0.0000   0.0000   0.8564
  -3.900   0.2727   0.00962   0.00323  -0.1555  0.7403  0.0674  -1.7910   0.0000   0.0000   0.0000   0.8306
  -3.800   0.2844   0.00955   0.00316  -0.1556  0.7392  0.0719  -1.7381   0.0000   0.0000   0.0000   0.8069
  -3.700   0.2960   0.00948   0.00310  -0.1557  0.7377  0.0768  -1.6857   0.0000   0.0000   0.0000   0.7852
  -3.500   0.3190   0.00933   0.00300  -0.1560  0.7346  0.0886  -1.5812   0.0000   0.0000   0.0000   0.7466
  -3.400   0.3306   0.00926   0.00295  -0.1561  0.7332  0.0953  -1.5292   0.0000   0.0000   0.0000   0.7293
  -3.300   0.3423   0.00919   0.00290  -0.1562  0.7318  0.1024  -1.4774   0.0000   0.0000   0.0000   0.7131
  -3.200   0.3539   0.00913   0.00285  -0.1563  0.7305  0.1100  -1.4259   0.0000   0.0000   0.0000   0.6979
  -3.100   0.3656   0.00907   0.00280  -0.1565  0.7293  0.1186  -1.3746   0.0000   0.0000   0.0000   0.6837
  -3.000   0.3773   0.00902   0.00277  -0.1566  0.7281  0.1279  -1.3238   0.0000   0.0000   0.0000   0.6704
  -2.900   0.3888   0.00895   0.00274  -0.1567  0.7264  0.1374  -1.2738   0.0000   0.0000   0.0000   0.6580
  -2.800   0.4003   0.00889   0.00271  -0.1568  0.7248  0.1472  -1.2242   0.0000   0.0000   0.0000   0.6463
  -2.700   0.4119   0.00883   0.00268  -0.1569  0.7232  0.1573  -1.1748   0.0000   0.0000   0.0000   0.6352
  -2.600   0.4235   0.00877   0.00265  -0.1570  0.7216  0.1681  -1.1259   0.0000   0.0000   0.0000   0.6247
  -2.500   0.4351   0.00872   0.00262  -0.1572  0.7202  0.1795  -1.0773   0.0000   0.0000   0.0000   0.6147
  -2.400   0.4468   0.00868   0.00259  -0.1573  0.7188  0.1914  -1.0318   0.0000   0.0000   0.0000   0.6053
  -2.200   0.4698   0.00856   0.00256  -0.1575  0.7154  0.2156  -0.9455   0.0000   0.0000   0.0000   0.5879
  -2.100   0.4813   0.00850   0.00254  -0.1576  0.7136  0.2286  -0.9028   0.0000   0.0000   0.0000   0.5798
  -2.000   0.4929   0.00845   0.00252  -0.1577  0.7119  0.2413  -0.8604   0.0000   0.0000   0.0000   0.5721
  -1.900   0.5045   0.00841   0.00250  -0.1578  0.7104  0.2529  -0.8308   0.0000   0.0000   0.0000   0.5647
  -1.800   0.5162   0.00838   0.00248  -0.1579  0.7091  0.2647  -0.8388   0.0000   0.0000   0.0000   0.5576
  -1.700   0.5279   0.00835   0.00246  -0.1581  0.7077  0.2776  -0.8468   0.0000   0.0000   0.0000   0.5508
  -1.600   0.5394   0.00830   0.00246  -0.1582  0.7060  0.2912  -0.8547   0.0000   0.0000   0.0000   0.5444
  -1.500   0.5509   0.00826   0.00246  -0.1583  0.7042  0.3049  -0.8626   0.0000   0.0000   0.0000   0.5383
  -1.400   0.5624   0.00821   0.00245  -0.1584  0.7025  0.3185  -0.8706   0.0000   0.0000   0.0000   0.5323
  -1.300   0.5740   0.00817   0.00244  -0.1585  0.7008  0.3337  -0.8786   0.0000   0.0000   0.0000   0.5267
  -1.200   0.5856   0.00813   0.00243  -0.1586  0.6993  0.3503  -0.8866   0.0000   0.0000   0.0000   0.5212
  -1.100   0.5973   0.00810   0.00243  -0.1587  0.6979  0.3670  -0.8947   0.0000   0.0000   0.0000   0.5159
  -1.000   0.6088   0.00806   0.00243  -0.1589  0.6962  0.3835  -0.9026   0.0000   0.0000   0.0000   0.5109
  -0.900   0.6203   0.00801   0.00244  -0.1589  0.6943  0.3998  -0.9114   0.0000   0.0000   0.0000   0.5060
  -0.800   0.6318   0.00797   0.00244  -0.1590  0.6925  0.4159  -0.9205   0.0000   0.0000   0.0000   0.5013
  -0.700   0.6433   0.00793   0.00244  -0.1591  0.6907  0.4324  -0.9297   0.0000   0.0000   0.0000   0.4968
  -0.600   0.6549   0.00790   0.00243  -0.1592  0.6890  0.4499  -0.9389   0.0000   0.0000   0.0000   0.4924
  -0.500   0.6665   0.00787   0.00243  -0.1593  0.6874  0.4685  -0.9481   0.0000   0.0000   0.0000   0.4881
  -0.400   0.6779   0.00783   0.00245  -0.1594  0.6853  0.4871  -0.9573   0.0000   0.0000   0.0000   0.4841
  -0.300   0.6893   0.00779   0.00245  -0.1595  0.6830  0.5058  -0.9667   0.0000   0.0000   0.0000   0.4801
  -0.200   0.7007   0.00774   0.00246  -0.1596  0.6809  0.5257  -0.9761   0.0000   0.0000   0.0000   0.4763
  -0.100   0.7122   0.00770   0.00247  -0.1596  0.6789  0.5484  -0.9855   0.0000   0.0000   0.0000   0.4726
   0.000   0.7236   0.00766   0.00247  -0.1597  0.6772  0.5712  -0.9950   0.0000   0.0000   0.0000   0.4690
   0.100   0.7350   0.00762   0.00250  -0.1598  0.6753  0.5934  -1.0044   0.0000   0.0000   0.0000   0.4655
   0.200   0.7463   0.00759   0.00252  -0.1598  0.6731  0.6150  -1.0138   0.0000   0.0000   0.0000   0.4621
   0.300   0.7577   0.00755   0.00254  -0.1599  0.6710  0.6353  -1.0232   0.0000   0.0000   0.0000   0.4588
   0.400   0.7689   0.00753   0.00256  -0.1599  0.6691  0.6560  -1.0326   0.0000   0.0000   0.0000   0.4556
   0.500   0.7802   0.00751   0.00258  -0.1599  0.6673  0.6772  -1.0420   0.0000   0.0000   0.0000   0.4524
   0.600   0.7914   0.00750   0.00261  -0.1599  0.6657  0.6963  -1.0514   0.0000   0.0000   0.0000   0.4494
   0.800   0.8136   0.00747   0.00267  -0.1598  0.6610  0.7307  -1.0700   0.0000   0.0000   0.0000   0.4435
   0.900   0.8247   0.00746   0.00269  -0.1598  0.6588  0.7456  -1.0808   0.0000   0.0000   0.0000   0.4407
   1.000   0.8357   0.00747   0.00270  -0.1597  0.6567  0.7585  -1.0915   0.0000   0.0000   0.0000   0.4379
   1.100   0.8467   0.00747   0.00272  -0.1596  0.6544  0.7699  -1.1022   0.0000   0.0000   0.0000   0.4352
   1.200   0.8576   0.00746   0.00274  -0.1596  0.6516  0.7807  -1.1129   0.0000   0.0000   0.0000   0.4326
   1.300   0.8685   0.00746   0.00276  -0.1595  0.6489  0.7914  -1.1235   0.0000   0.0000   0.0000   0.4300
   1.400   0.8793   0.00747   0.00277  -0.1594  0.6464  0.8019  -1.1342   0.0000   0.0000   0.0000   0.4275
   1.500   0.8900   0.00748   0.00279  -0.1592  0.6440  0.8124  -1.1451   0.0000   0.0000   0.0000   0.4250
   1.600   0.9007   0.00748   0.00282  -0.1591  0.6410  0.8227  -1.1560   0.0000   0.0000   0.0000   0.4226
   1.700   0.9113   0.00748   0.00284  -0.1590  0.6383  0.8335  -1.1668   0.0000   0.0000   0.0000   0.4203
   1.800   0.9217   0.00749   0.00286  -0.1588  0.6359  0.8443  -1.1776   0.0000   0.0000   0.0000   0.4179
   1.900   0.9321   0.00751   0.00287  -0.1586  0.6337  0.8549  -1.1883   0.0000   0.0000   0.0000   0.4157
   2.000   0.9424   0.00750   0.00290  -0.1584  0.6309  0.8655  -1.1990   0.0000   0.0000   0.0000   0.4135
   2.100   0.9525   0.00750   0.00293  -0.1581  0.6282  0.8765  -1.2101   0.0000   0.0000   0.0000   0.4113
   2.200   0.9623   0.00750   0.00294  -0.1578  0.6256  0.8880  -1.2226   0.0000   0.0000   0.0000   0.4091
   2.300   0.9716   0.00751   0.00296  -0.1573  0.6234  0.9002  -1.2347   0.0000   0.0000   0.0000   0.4069
   2.400   0.9806   0.00749   0.00298  -0.1568  0.6203  0.9151  -1.2466   0.0000   0.0000   0.0000   0.4048
   2.500   0.9887   0.00746   0.00298  -0.1561  0.6173  0.9359  -1.2579   0.0000   0.0000   0.0000   0.4026
   2.600   0.9996   0.00741   0.00294  -0.1559  0.6144  0.9919  -1.2713   0.0000   0.0000   0.0000   0.4006
   2.700   1.0111   0.00745   0.00296  -0.1560  0.6114  1.0000  -1.2850   0.0000   0.0000   0.0000   0.3988
   2.800   1.0225   0.00749   0.00299  -0.1561  0.6077  1.0000  -1.2987   0.0000   0.0000   0.0000   0.3971
   2.900   1.0337   0.00753   0.00301  -0.1562  0.6042  1.0000  -1.3123   0.0000   0.0000   0.0000   0.3953
   3.000   1.0449   0.00759   0.00304  -0.1562  0.6010  1.0000  -1.3259   0.0000   0.0000   0.0000   0.3936
   3.100   1.0562   0.00762   0.00308  -0.1563  0.5971  1.0000  -1.3396   0.0000   0.0000   0.0000   0.3919
   3.200   1.0672   0.00768   0.00311  -0.1563  0.5936  1.0000  -1.3531   0.0000   0.0000   0.0000   0.3903
   3.300   1.0782   0.00774   0.00314  -0.1563  0.5905  1.0000  -1.3666   0.0000   0.0000   0.0000   0.3887
   3.400   1.0894   0.00778   0.00318  -0.1564  0.5868  1.0000  -1.3804   0.0000   0.0000   0.0000   0.3871
   3.500   1.1005   0.00783   0.00322  -0.1564  0.5834  1.0000  -1.3940   0.0000   0.0000   0.0000   0.3856
   3.700   1.1224   0.00795   0.00330  -0.1565  0.5767  1.0000  -1.4212   0.0000   0.0000   0.0000   0.3825
   3.800   1.1333   0.00800   0.00335  -0.1565  0.5730  1.0000  -1.4350   0.0000   0.0000   0.0000   0.3810
   3.900   1.1440   0.00808   0.00340  -0.1564  0.5697  1.0000  -1.4489   0.0000   0.0000   0.0000   0.3796
   4.000   1.1550   0.00813   0.00344  -0.1564  0.5659  1.0000  -1.4641   0.0000   0.0000   0.0000   0.3782
   4.100   1.1657   0.00819   0.00349  -0.1564  0.5621  1.0000  -1.4794   0.0000   0.0000   0.0000   0.3767
   4.300   1.1871   0.00833   0.00360  -0.1563  0.5546  1.0000  -1.5107   0.0000   0.0000   0.0000   0.3740
   4.400   1.1977   0.00840   0.00365  -0.1563  0.5504  1.0000  -1.5265   0.0000   0.0000   0.0000   0.3726
   4.500   1.2080   0.00848   0.00371  -0.1561  0.5465  1.0000  -1.5421   0.0000   0.0000   0.0000   0.3713
   4.600   1.2187   0.00854   0.00378  -0.1561  0.5419  1.0000  -1.5580   0.0000   0.0000   0.0000   0.3700
   4.700   1.2289   0.00863   0.00384  -0.1560  0.5376  1.0000  -1.5744   0.0000   0.0000   0.0000   0.3687
   4.800   1.2393   0.00871   0.00390  -0.1559  0.5331  1.0000  -1.5913   0.0000   0.0000   0.0000   0.3674
   4.900   1.2496   0.00879   0.00397  -0.1558  0.5285  1.0000  -1.6080   0.0000   0.0000   0.0000   0.3661
   5.000   1.2597   0.00888   0.00404  -0.1557  0.5243  1.0000  -1.6246   0.0000   0.0000   0.0000   0.3649
   5.100   1.2702   0.00895   0.00411  -0.1556  0.5198  1.0000  -1.6415   0.0000   0.0000   0.0000   0.3637
   5.200   1.2801   0.00905   0.00418  -0.1554  0.5156  1.0000  -1.6581   0.0000   0.0000   0.0000   0.3624
   5.300   1.2903   0.00914   0.00425  -0.1553  0.5112  1.0000  -1.6773   0.0000   0.0000   0.0000   0.3612
   5.400   1.3004   0.00923   0.00434  -0.1552  0.5066  1.0000  -1.6971   0.0000   0.0000   0.0000   0.3601
   5.500   1.3101   0.00934   0.00442  -0.1550  0.5023  1.0000  -1.7166   0.0000   0.0000   0.0000   0.3589
   5.600   1.3203   0.00942   0.00450  -0.1548  0.4975  1.0000  -1.7365   0.0000   0.0000   0.0000   0.3577
   5.800   1.3398   0.00963   0.00468  -0.1544  0.4878  1.0000  -1.7758   0.0000   0.0000   0.0000   0.3554
   5.900   1.3492   0.00975   0.00477  -0.1542  0.4827  1.0000  -1.7952   0.0000   0.0000   0.0000   0.3543
   6.000   1.3589   0.00985   0.00486  -0.1540  0.4776  1.0000  -1.8150   0.0000   0.0000   0.0000   0.3532
   6.100   1.3682   0.00997   0.00496  -0.1537  0.4723  1.0000  -1.8373   0.0000   0.0000   0.0000   0.3521
   6.200   1.3778   0.01008   0.00506  -0.1535  0.4671  1.0000  -1.8618   0.0000   0.0000   0.0000   0.3510
   6.300   1.3870   0.01021   0.00516  -0.1532  0.4617  1.0000  -1.8860   0.0000   0.0000   0.0000   0.3499
   6.400   1.3963   0.01032   0.00527  -0.1530  0.4566  1.0000  -1.9105   0.0000   0.0000   0.0000   0.3488
   6.500   1.4055   0.01045   0.00537  -0.1527  0.4514  1.0000  -1.9348   0.0000   0.0000   0.0000   0.3477
   6.600   1.4145   0.01058   0.00549  -0.1524  0.4465  1.0000  -1.9590   0.0000   0.0000   0.0000   0.3467
   6.700   1.4236   0.01070   0.00560  -0.1521  0.4411  1.0000  -1.9834   0.0000   0.0000   0.0000   0.3456
   6.800   1.4322   0.01085   0.00572  -0.1517  0.4359  1.0000  -2.0073   0.0000   0.0000   0.0000   0.3446
   6.900   1.4410   0.01098   0.00584  -0.1514  0.4301  1.0000  -2.0315   0.0000   0.0000   0.0000   0.3435
   7.000   1.4494   0.01113   0.00597  -0.1510  0.4246  1.0000  -2.0553   0.0000   0.0000   0.0000   0.3425
   7.100   1.4579   0.01128   0.00610  -0.1506  0.4187  1.0000  -2.0792   0.0000   0.0000   0.0000   0.3414
   7.200   1.4662   0.01143   0.00623  -0.1501  0.4132  1.0000  -2.1030   0.0000   0.0000   0.0000   0.3404
   7.300   1.4743   0.01159   0.00637  -0.1497  0.4073  1.0000  -2.1266   0.0000   0.0000   0.0000   0.3394
   7.400   1.4825   0.01174   0.00651  -0.1492  0.4016  1.0000  -2.1559   0.0000   0.0000   0.0000   0.3384
   7.500   1.4901   0.01192   0.00666  -0.1487  0.3959  1.0000  -2.1857   0.0000   0.0000   0.0000   0.3373
   7.600   1.4979   0.01207   0.00680  -0.1482  0.3904  1.0000  -2.2160   0.0000   0.0000   0.0000   0.3363
   7.700   1.5046   0.01225   0.00696  -0.1475  0.3850  1.0000  -2.2446   0.0000   0.0000   0.0000   0.3352
   7.800   1.5120   0.01241   0.00711  -0.1469  0.3796  1.0000  -2.2744   0.0000   0.0000   0.0000   0.3342
   7.900   1.5186   0.01261   0.00728  -0.1462  0.3744  1.0000  -2.3029   0.0000   0.0000   0.0000   0.3332
   8.000   1.5260   0.01277   0.00744  -0.1456  0.3693  1.0000  -2.3330   0.0000   0.0000   0.0000   0.3322
   8.100   1.5325   0.01297   0.00762  -0.1449  0.3642  1.0000  -2.3617   0.0000   0.0000   0.0000   0.3311
   8.200   1.5396   0.01316   0.00779  -0.1443  0.3590  1.0000  -2.3914   0.0000   0.0000   0.0000   0.3301
   8.300   1.5458   0.01337   0.00799  -0.1436  0.3535  1.0000  -2.4197   0.0000   0.0000   0.0000   0.3291
   8.400   1.5525   0.01357   0.00817  -0.1429  0.3480  1.0000  -2.4491   0.0000   0.0000   0.0000   0.3281
   8.500   1.5580   0.01382   0.00840  -0.1421  0.3424  1.0000  -2.4765   0.0000   0.0000   0.0000   0.3271
   8.600   1.5646   0.01403   0.00860  -0.1414  0.3363  1.0000  -2.5057   0.0000   0.0000   0.0000   0.3261
   8.700   1.5699   0.01430   0.00884  -0.1406  0.3304  1.0000  -2.5329   0.0000   0.0000   0.0000   0.3251
   8.800   1.5755   0.01455   0.00908  -0.1398  0.3240  1.0000  -2.5608   0.0000   0.0000   0.0000   0.3241
   8.900   1.5809   0.01482   0.00933  -0.1390  0.3181  1.0000  -2.5883   0.0000   0.0000   0.0000   0.3232
   9.000   1.5857   0.01513   0.00960  -0.1381  0.3120  1.0000  -2.6162   0.0000   0.0000   0.0000   0.3222
   9.100   1.5913   0.01540   0.00986  -0.1374  0.3059  1.0000  -2.6541   0.0000   0.0000   0.0000   0.3212
   9.200   1.5959   0.01573   0.01016  -0.1365  0.3003  1.0000  -2.6924   0.0000   0.0000   0.0000   0.3203
   9.300   1.6015   0.01602   0.01044  -0.1358  0.2943  1.0000  -2.7351   0.0000   0.0000   0.0000   0.3194
   9.400   1.6065   0.01634   0.01074  -0.1350  0.2890  1.0000  -2.7810   0.0000   0.0000   0.0000   0.3184
   9.500   1.6116   0.01665   0.01104  -0.1343  0.2833  1.0000  -2.8352   0.0000   0.0000   0.0000   0.3175
   9.600   1.6168   0.01698   0.01135  -0.1336  0.2780  1.0000  -2.8899   0.0000   0.0000   0.0000   0.3166
   9.700   1.6214   0.01734   0.01169  -0.1328  0.2726  1.0000  -2.9430   0.0000   0.0000   0.0000   0.3157
   9.800   1.6266   0.01767   0.01201  -0.1321  0.2675  1.0000  -2.9983   0.0000   0.0000   0.0000   0.3149
   9.900   1.6309   0.01806   0.01238  -0.1313  0.2628  1.0000  -3.0510   0.0000   0.0000   0.0000   0.3140
  10.000   1.6361   0.01840   0.01272  -0.1306  0.2581  1.0000  -3.1074   0.0000   0.0000   0.0000   0.3131
  10.100   1.6404   0.01880   0.01311  -0.1299  0.2534  1.0000  -3.1605   0.0000   0.0000   0.0000   0.3123
  10.200   1.6454   0.01916   0.01346  -0.1292  0.2486  1.0000  -3.2166   0.0000   0.0000   0.0000   0.3114
  10.300   1.6493   0.01960   0.01388  -0.1284  0.2439  1.0000  -3.2693   0.0000   0.0000   0.0000   0.3106
  10.400   1.6541   0.01999   0.01426  -0.1277  0.2389  1.0000  -3.3251   0.0000   0.0000   0.0000   0.3098
  10.600   1.6622   0.02087   0.01512  -0.1263  0.2285  1.0000  -3.4328   0.0000   0.0000   0.0000   0.3081
  10.700   1.6656   0.02136   0.01558  -0.1255  0.2233  1.0000  -3.4850   0.0000   0.0000   0.0000   0.3073
  10.800   1.6695   0.02183   0.01604  -0.1248  0.2177  1.0000  -3.5388   0.0000   0.0000   0.0000   0.3065
  10.900   1.6730   0.02232   0.01652  -0.1240  0.2125  1.0000  -3.5915   0.0000   0.0000   0.0000   0.3057
  11.000   1.6758   0.02287   0.01704  -0.1232  0.2073  1.0000  -3.6422   0.0000   0.0000   0.0000   0.3049
  11.100   1.6796   0.02335   0.01751  -0.1225  0.2021  1.0000  -3.6966   0.0000   0.0000   0.0000   0.3042
  11.200   1.6823   0.02392   0.01806  -0.1217  0.1972  1.0000  -3.7472   0.0000   0.0000   0.0000   0.3034
  11.300   1.6858   0.02444   0.01857  -0.1210  0.1921  1.0000  -3.8009   0.0000   0.0000   0.0000   0.3026
  11.400   1.6887   0.02500   0.01912  -0.1203  0.1875  1.0000  -3.8527   0.0000   0.0000   0.0000   0.3018
  11.500   1.6917   0.02556   0.01966  -0.1196  0.1828  1.0000  -3.9051   0.0000   0.0000   0.0000   0.3011
  11.600   1.6947   0.02612   0.02021  -0.1188  0.1783  1.0000  -3.9578   0.0000   0.0000   0.0000   0.3003
  11.700   1.6972   0.02672   0.02079  -0.1181  0.1736  1.0000  -4.0088   0.0000   0.0000   0.0000   0.2996
  11.800   1.7003   0.02728   0.02135  -0.1174  0.1689  1.0000  -4.0622   0.0000   0.0000   0.0000   0.2989
  11.900   1.7023   0.02793   0.02199  -0.1166  0.1645  1.0000  -4.1117   0.0000   0.0000   0.0000   0.2981
  12.000   1.7053   0.02851   0.02256  -0.1160  0.1599  1.0000  -4.1653   0.0000   0.0000   0.0000   0.2974
  12.100   1.7073   0.02917   0.02321  -0.1152  0.1557  1.0000  -4.2149   0.0000   0.0000   0.0000   0.2967
  12.200   1.7097   0.02980   0.02383  -0.1145  0.1514  1.0000  -4.2667   0.0000   0.0000   0.0000   0.2960
  12.300   1.7115   0.03048   0.02450  -0.1138  0.1475  1.0000  -4.3160   0.0000   0.0000   0.0000   0.2953
  12.400   1.7136   0.03115   0.02516  -0.1131  0.1435  1.0000  -4.3665   0.0000   0.0000   0.0000   0.2946
  12.500   1.7153   0.03184   0.02585  -0.1123  0.1399  1.0000  -4.4158   0.0000   0.0000   0.0000   0.2939
  12.600   1.7173   0.03251   0.02652  -0.1117  0.1359  1.0000  -4.4667   0.0000   0.0000   0.0000   0.2932
  12.700   1.7190   0.03323   0.02722  -0.1110  0.1322  1.0000  -4.5161   0.0000   0.0000   0.0000   0.2925
  12.800   1.7207   0.03395   0.02794  -0.1103  0.1284  1.0000  -4.5660   0.0000   0.0000   0.0000   0.2919
  12.900   1.7222   0.03468   0.02867  -0.1096  0.1249  1.0000  -4.6153   0.0000   0.0000   0.0000   0.2912
  13.000   1.7237   0.03544   0.02942  -0.1089  0.1212  1.0000  -4.6646   0.0000   0.0000   0.0000   0.2905
  13.100   1.7251   0.03620   0.03018  -0.1083  0.1178  1.0000  -4.7135   0.0000   0.0000   0.0000   0.2899
  13.200   1.7264   0.03698   0.03095  -0.1076  0.1142  1.0000  -4.7625   0.0000   0.0000   0.0000   0.2893
  13.300   1.7275   0.03778   0.03175  -0.1070  0.1110  1.0000  -4.8104   0.0000   0.0000   0.0000   0.2886
  13.400   1.7287   0.03858   0.03255  -0.1063  0.1077  1.0000  -4.8587   0.0000   0.0000   0.0000   0.2880
  13.500   1.7295   0.03943   0.03339  -0.1057  0.1048  1.0000  -4.9057   0.0000   0.0000   0.0000   0.2874
  13.600   1.7308   0.04023   0.03420  -0.1051  0.1016  1.0000  -4.9552   0.0000   0.0000   0.0000   0.2868
  13.700   1.7312   0.04114   0.03510  -0.1045  0.0989  1.0000  -5.0006   0.0000   0.0000   0.0000   0.2862
  13.800   1.7330   0.04192   0.03589  -0.1039  0.0959  1.0000  -5.0521   0.0000   0.0000   0.0000   0.2856
  13.900   1.7333   0.04285   0.03682  -0.1033  0.0932  1.0000  -5.0973   0.0000   0.0000   0.0000   0.2850
  14.000   1.7349   0.04367   0.03764  -0.1028  0.0906  1.0000  -5.1485   0.0000   0.0000   0.0000   0.2844
  14.100   1.7357   0.04457   0.03855  -0.1023  0.0880  1.0000  -5.1961   0.0000   0.0000   0.0000   0.2839
  14.200   1.7365   0.04547   0.03946  -0.1018  0.0857  1.0000  -5.2438   0.0000   0.0000   0.0000   0.2833
  14.300   1.7379   0.04633   0.04033  -0.1013  0.0833  1.0000  -5.2942   0.0000   0.0000   0.0000   0.2828
  14.400   1.7380   0.04731   0.04131  -0.1007  0.0811  1.0000  -5.3390   0.0000   0.0000   0.0000   0.2822
  14.500   1.7391   0.04820   0.04221  -0.1003  0.0789  1.0000  -5.3886   0.0000   0.0000   0.0000   0.2817
  14.600   1.7397   0.04915   0.04317  -0.0998  0.0768  1.0000  -5.4358   0.0000   0.0000   0.0000   0.2812
  14.800   1.7409   0.05109   0.04513  -0.0989  0.0729  1.0000  -5.5299   0.0000   0.0000   0.0000   0.2802
  14.900   1.7413   0.05208   0.04614  -0.0984  0.0709  1.0000  -5.5766   0.0000   0.0000   0.0000   0.2797
  15.000   1.7409   0.05317   0.04723  -0.0980  0.0692  1.0000  -5.6196   0.0000   0.0000   0.0000   0.2792
  15.100   1.7420   0.05412   0.04820  -0.0976  0.0674  1.0000  -5.6693   0.0000   0.0000   0.0000   0.2787
  15.200   1.7423   0.05516   0.04925  -0.0972  0.0656  1.0000  -5.7154   0.0000   0.0000   0.0000   0.2782
  15.300   1.7415   0.05631   0.05041  -0.0968  0.0641  1.0000  -5.7565   0.0000   0.0000   0.0000   0.2778
  15.400   1.7425   0.05729   0.05142  -0.0965  0.0624  1.0000  -5.8062   0.0000   0.0000   0.0000   0.2773
  15.500   1.7429   0.05835   0.05248  -0.0961  0.0607  1.0000  -5.8526   0.0000   0.0000   0.0000   0.2769
  15.600   1.7421   0.05953   0.05368  -0.0958  0.0591  1.0000  -5.8937   0.0000   0.0000   0.0000   0.2765
  15.700   1.7423   0.06059   0.05476  -0.0954  0.0576  1.0000  -5.9401   0.0000   0.0000   0.0000   0.2760
  15.800   1.7423   0.06170   0.05589  -0.0951  0.0561  1.0000  -5.9847   0.0000   0.0000   0.0000   0.2756
  15.900   1.7415   0.06290   0.05710  -0.0948  0.0546  1.0000  -6.0260   0.0000   0.0000   0.0000   0.2752
  16.000   1.7408   0.06410   0.05832  -0.0945  0.0533  1.0000  -6.0675   0.0000   0.0000   0.0000   0.2748
  16.100   1.7410   0.06521   0.05945  -0.0942  0.0518  1.0000  -6.1137   0.0000   0.0000   0.0000   0.2744
  16.200   1.7404   0.06642   0.06068  -0.0940  0.0503  1.0000  -6.1557   0.0000   0.0000   0.0000   0.2741
  16.300   1.7388   0.06776   0.06203  -0.0937  0.0490  1.0000  -6.1927   0.0000   0.0000   0.0000   0.2737
  16.400   1.7389   0.06890   0.06320  -0.0935  0.0476  1.0000  -6.2382   0.0000   0.0000   0.0000   0.2733
  16.500   1.7379   0.07018   0.06450  -0.0933  0.0463  1.0000  -6.2783   0.0000   0.0000   0.0000   0.2730
  16.600   1.7363   0.07154   0.06588  -0.0930  0.0450  1.0000  -6.3153   0.0000   0.0000   0.0000   0.2727
  16.700   1.7351   0.07287   0.06722  -0.0929  0.0438  1.0000  -6.3541   0.0000   0.0000   0.0000   0.2724
  16.800   1.7343   0.07416   0.06854  -0.0927  0.0426  1.0000  -6.3948   0.0000   0.0000   0.0000   0.2721
  16.900   1.7326   0.07555   0.06995  -0.0925  0.0414  1.0000  -6.4311   0.0000   0.0000   0.0000   0.2718
  17.000   1.7301   0.07706   0.07147  -0.0924  0.0404  1.0000  -6.4631   0.0000   0.0000   0.0000   0.2715
  17.100   1.7291   0.07838   0.07282  -0.0923  0.0393  1.0000  -6.5023   0.0000   0.0000   0.0000   0.2712
  17.200   1.7276   0.07977   0.07424  -0.0922  0.0382  1.0000  -6.5392   0.0000   0.0000   0.0000   0.2710
  17.300   1.7255   0.08124   0.07573  -0.0921  0.0372  1.0000  -6.5728   0.0000   0.0000   0.0000   0.2707
  17.400   1.7225   0.08283   0.07734  -0.0920  0.0363  1.0000  -6.6017   0.0000   0.0000   0.0000   0.2705
  17.500   1.7210   0.08425   0.07879  -0.0919  0.0354  1.0000  -6.6383   0.0000   0.0000   0.0000   0.2703
  17.600   1.7196   0.08567   0.08024  -0.0919  0.0345  1.0000  -6.6747   0.0000   0.0000   0.0000   0.2701
  17.700   1.7175   0.08718   0.08177  -0.0919  0.0335  1.0000  -6.7079   0.0000   0.0000   0.0000   0.2699
  17.800   1.7145   0.08882   0.08344  -0.0919  0.0327  1.0000  -6.7361   0.0000   0.0000   0.0000   0.2697
  17.900   1.7118   0.09043   0.08507  -0.0920  0.0319  1.0000  -6.7655   0.0000   0.0000   0.0000   0.2696
  18.000   1.7104   0.09188   0.08656  -0.0920  0.0311  1.0000  -6.8017   0.0000   0.0000   0.0000   0.2694
  18.100   1.7084   0.09340   0.08811  -0.0921  0.0302  1.0000  -6.8346   0.0000   0.0000   0.0000   0.2692
  18.200   1.7055   0.09506   0.08979  -0.0922  0.0295  1.0000  -6.8627   0.0000   0.0000   0.0000   0.2691
  18.300   1.7023   0.09678   0.09153  -0.0923  0.0288  1.0000  -6.8894   0.0000   0.0000   0.0000   0.2690
  18.400   1.6995   0.09845   0.09323  -0.0924  0.0282  1.0000  -6.9241   0.0000   0.0000   0.0000   0.2690
  18.500   1.6979   0.09994   0.09476  -0.0926  0.0274  1.0000  -6.9666   0.0000   0.0000   0.0000   0.2688
  18.600   1.6954   0.10154   0.09640  -0.0927  0.0267  1.0000  -7.0035   0.0000   0.0000   0.0000   0.2687
  18.700   1.6925   0.10323   0.09812  -0.0929  0.0261  1.0000  -7.0373   0.0000   0.0000   0.0000   0.2687
  18.800   1.6890   0.10501   0.09992  -0.0931  0.0255  1.0000  -7.0670   0.0000   0.0000   0.0000   0.2687
  19.000   1.6829   0.10846   0.10343  -0.0936  0.0245  1.0000  -7.1314   0.0000   0.0000   0.0000   0.2686
  19.100   1.6805   0.11011   0.10511  -0.0939  0.0239  1.0000  -7.1674   0.0000   0.0000   0.0000   0.2686
  19.200   1.6777   0.11182   0.10686  -0.0942  0.0234  1.0000  -7.2007   0.0000   0.0000   0.0000   0.2686
  19.300   1.6745   0.11361   0.10868  -0.0945  0.0229  1.0000  -7.2310   0.0000   0.0000   0.0000   0.2687
  19.400   1.6710   0.11545   0.11056  -0.0949  0.0225  1.0000  -7.2585   0.0000   0.0000   0.0000   0.2688
  19.500   1.6670   0.11737   0.11250  -0.0953  0.0221  1.0000  -7.2824   0.0000   0.0000   0.0000   0.2689
  19.600   1.6628   0.11934   0.11450  -0.0958  0.0217  1.0000  -7.3043   0.0000   0.0000   0.0000   0.2691
  19.700   1.6606   0.12099   0.11620  -0.0962  0.0213  1.0000  -7.3400   0.0000   0.0000   0.0000   0.2691
  19.800   1.6581   0.12272   0.11796  -0.0966  0.0209  1.0000  -7.3728   0.0000   0.0000   0.0000   0.2692
  19.900   1.6552   0.12450   0.11978  -0.0971  0.0205  1.0000  -7.4026   0.0000   0.0000   0.0000   0.2693
  20.000   1.6521   0.12633   0.12164  -0.0976  0.0202  1.0000  -7.4308   0.0000   0.0000   0.0000   0.2694


