xflr5 v6.57

 Calculated polar for: rev_root_140

 1 1 Reynolds number fixed          Mach number fixed         

 xtrf =   1.000 (top)        1.000 (bottom)
 Mach =   0.000     Re =     0.540 e 6     Ncrit =   9.000

  alpha     CL        CD       CDp       Cm    Top Xtr Bot Xtr   Cpmin    Chinge    XCp    
 ------- -------- --------- --------- -------- ------- ------- -------- --------- ---------
 -10.000  -0.3723   0.03105   0.02720  -0.1426  0.8417  0.0223  -5.7711   0.0000   0.0000   0.0000  -0.1570
  -9.900  -0.3686   0.02921   0.02515  -0.1443  0.8392  0.0225  -5.7815   0.0000   0.0000   0.0000  -0.1654
  -9.800  -0.3630   0.02780   0.02353  -0.1455  0.8372  0.0227  -5.7654   0.0000   0.0000   0.0000  -0.1749
  -9.700  -0.3560   0.02667   0.02221  -0.1464  0.8355  0.0229  -5.7316   0.0000   0.0000   0.0000  -0.1854
  -9.600  -0.3480   0.02578   0.02114  -0.1471  0.8336  0.0231  -5.6839   0.0000   0.0000   0.0000  -0.1971
  -9.500  -0.3392   0.02511   0.02031  -0.1477  0.8315  0.0233  -5.6232   0.0000   0.0000   0.0000  -0.2100
  -9.400  -0.3317   0.02394   0.01897  -0.1483  0.8296  0.0235  -5.5838   0.0000   0.0000   0.0000  -0.2219
  -9.300  -0.3237   0.02291   0.01785  -0.1487  0.8280  0.0238  -5.5268   0.0000   0.0000   0.0000  -0.2346
  -9.200  -0.3143   0.02232   0.01721  -0.1490  0.8266  0.0240  -5.4464   0.0000   0.0000   0.0000  -0.2495
  -9.100  -0.3045   0.02186   0.01670  -0.1492  0.8251  0.0241  -5.3612   0.0000   0.0000   0.0000  -0.2660
  -9.000  -0.2946   0.02144   0.01625  -0.1494  0.8233  0.0243  -5.2745   0.0000   0.0000   0.0000  -0.2837
  -8.900  -0.2845   0.02105   0.01581  -0.1496  0.8215  0.0245  -5.1877   0.0000   0.0000   0.0000  -0.3029
  -8.800  -0.2743   0.02066   0.01537  -0.1498  0.8199  0.0247  -5.1018   0.0000   0.0000   0.0000  -0.3238
  -8.700  -0.2640   0.02029   0.01494  -0.1500  0.8185  0.0249  -5.0161   0.0000   0.0000   0.0000  -0.3465
  -8.600  -0.2536   0.01992   0.01451  -0.1502  0.8173  0.0251  -4.9309   0.0000   0.0000   0.0000  -0.3713
  -8.500  -0.2432   0.01955   0.01407  -0.1504  0.8158  0.0254  -4.8478   0.0000   0.0000   0.0000  -0.3981
  -8.400  -0.2328   0.01916   0.01363  -0.1505  0.8141  0.0256  -4.7663   0.0000   0.0000   0.0000  -0.4272
  -8.300  -0.2223   0.01878   0.01318  -0.1507  0.8124  0.0259  -4.6855   0.0000   0.0000   0.0000  -0.4594
  -8.200  -0.2117   0.01840   0.01273  -0.1508  0.8109  0.0261  -4.6079   0.0000   0.0000   0.0000  -0.4951
  -8.100  -0.2010   0.01805   0.01230  -0.1510  0.8095  0.0264  -4.5358   0.0000   0.0000   0.0000  -0.5350
  -8.000  -0.1902   0.01771   0.01188  -0.1511  0.8083  0.0266  -4.4630   0.0000   0.0000   0.0000  -0.5799
  -7.900  -0.1792   0.01741   0.01149  -0.1513  0.8071  0.0269  -4.3893   0.0000   0.0000   0.0000  -0.6306
  -7.800  -0.1684   0.01715   0.01117  -0.1514  0.8054  0.0271  -4.3144   0.0000   0.0000   0.0000  -0.6874
  -7.700  -0.1573   0.01696   0.01091  -0.1515  0.8039  0.0273  -4.2361   0.0000   0.0000   0.0000  -0.7537
  -7.600  -0.1472   0.01634   0.01027  -0.1516  0.8024  0.0277  -4.1718   0.0000   0.0000   0.0000  -0.8225
  -7.500  -0.1365   0.01601   0.00993  -0.1518  0.8010  0.0280  -4.0923   0.0000   0.0000   0.0000  -0.9066
  -7.400  -0.1256   0.01579   0.00970  -0.1519  0.7998  0.0283  -4.0089   0.0000   0.0000   0.0000  -1.0080
  -7.300  -0.1144   0.01560   0.00949  -0.1520  0.7986  0.0287  -3.9259   0.0000   0.0000   0.0000  -1.1306
  -7.200  -0.1033   0.01541   0.00927  -0.1521  0.7974  0.0290  -3.8486   0.0000   0.0000   0.0000  -1.2793
  -7.100  -0.0923   0.01521   0.00905  -0.1522  0.7957  0.0294  -3.7780   0.0000   0.0000   0.0000  -1.4606
  -7.000  -0.0813   0.01499   0.00880  -0.1523  0.7941  0.0297  -3.7094   0.0000   0.0000   0.0000  -1.6926
  -6.900  -0.0702   0.01478   0.00855  -0.1524  0.7925  0.0300  -3.6415   0.0000   0.0000   0.0000  -1.9996
  -6.800  -0.0590   0.01457   0.00831  -0.1524  0.7911  0.0304  -3.5740   0.0000   0.0000   0.0000  -2.4257
  -6.700  -0.0477   0.01437   0.00806  -0.1525  0.7898  0.0307  -3.5066   0.0000   0.0000   0.0000  -3.0575
  -6.600  -0.0364   0.01420   0.00783  -0.1526  0.7886  0.0310  -3.4390   0.0000   0.0000   0.0000  -4.0922
  -6.500  -0.0251   0.01404   0.00764  -0.1527  0.7872  0.0313  -3.3716   0.0000   0.0000   0.0000  -6.0341
  -6.400  -0.0141   0.01380   0.00737  -0.1528  0.7856  0.0316  -3.3073   0.0000   0.0000   0.0000  -10.9453
  -6.300  -0.0033   0.01347   0.00705  -0.1529  0.7841  0.0321  -3.2434   0.0000   0.0000   0.0000  -48.1051
  -6.200   0.0079   0.01327   0.00685  -0.1530  0.7827  0.0326  -3.1729   0.0000   0.0000   0.0000  20.2532
  -6.100   0.0192   0.01312   0.00669  -0.1531  0.7814  0.0331  -3.1012   0.0000   0.0000   0.0000   8.4674
  -6.000   0.0306   0.01299   0.00654  -0.1532  0.7801  0.0336  -3.0301   0.0000   0.0000   0.0000   5.4044
  -5.900   0.0422   0.01286   0.00639  -0.1534  0.7790  0.0342  -2.9605   0.0000   0.0000   0.0000   3.9983
  -5.800   0.0535   0.01273   0.00623  -0.1534  0.7776  0.0348  -2.8931   0.0000   0.0000   0.0000   3.2043
  -5.700   0.0648   0.01260   0.00608  -0.1535  0.7760  0.0354  -2.8270   0.0000   0.0000   0.0000   2.6887
  -5.600   0.0762   0.01248   0.00593  -0.1536  0.7745  0.0359  -2.7612   0.0000   0.0000   0.0000   2.3232
  -5.500   0.0874   0.01222   0.00567  -0.1537  0.7731  0.0366  -2.6990   0.0000   0.0000   0.0000   2.0576
  -5.400   0.0988   0.01203   0.00549  -0.1539  0.7718  0.0373  -2.6326   0.0000   0.0000   0.0000   1.8496
  -5.300   0.1103   0.01190   0.00535  -0.1540  0.7706  0.0380  -2.5691   0.0000   0.0000   0.0000   1.6828
  -5.200   0.1220   0.01179   0.00521  -0.1541  0.7695  0.0389  -2.5098   0.0000   0.0000   0.0000   1.5465
  -5.100   0.1336   0.01168   0.00508  -0.1542  0.7684  0.0399  -2.4521   0.0000   0.0000   0.0000   1.4342
  -4.900   0.1563   0.01137   0.00477  -0.1545  0.7652  0.0422  -2.3398   0.0000   0.0000   0.0000   1.2625
  -4.800   0.1677   0.01125   0.00465  -0.1546  0.7638  0.0436  -2.2811   0.0000   0.0000   0.0000   1.1932
  -4.700   0.1793   0.01116   0.00454  -0.1547  0.7624  0.0454  -2.2238   0.0000   0.0000   0.0000   1.1323
  -4.600   0.1910   0.01101   0.00440  -0.1548  0.7611  0.0475  -2.1667   0.0000   0.0000   0.0000   1.0790
  -4.500   0.2027   0.01093   0.00430  -0.1549  0.7600  0.0501  -2.1084   0.0000   0.0000   0.0000   1.0313
  -4.400   0.2144   0.01082   0.00419  -0.1551  0.7589  0.0530  -2.0514   0.0000   0.0000   0.0000   0.9888
  -4.300   0.2257   0.01074   0.00411  -0.1551  0.7572  0.0563  -1.9950   0.0000   0.0000   0.0000   0.9516
  -4.200   0.2371   0.01062   0.00402  -0.1553  0.7555  0.0598  -1.9386   0.0000   0.0000   0.0000   0.9179
  -4.100   0.2487   0.01053   0.00392  -0.1553  0.7539  0.0637  -1.8881   0.0000   0.0000   0.0000   0.8870
  -4.000   0.2603   0.01043   0.00383  -0.1555  0.7525  0.0679  -1.8363   0.0000   0.0000   0.0000   0.8587
  -3.900   0.2719   0.01033   0.00374  -0.1556  0.7511  0.0724  -1.7844   0.0000   0.0000   0.0000   0.8328
  -3.800   0.2836   0.01024   0.00365  -0.1557  0.7498  0.0774  -1.7323   0.0000   0.0000   0.0000   0.8089
  -3.700   0.2953   0.01017   0.00359  -0.1559  0.7486  0.0830  -1.6801   0.0000   0.0000   0.0000   0.7869
  -3.500   0.3181   0.01001   0.00348  -0.1560  0.7453  0.0959  -1.5775   0.0000   0.0000   0.0000   0.7484
  -3.400   0.3297   0.00994   0.00342  -0.1562  0.7437  0.1033  -1.5261   0.0000   0.0000   0.0000   0.7310
  -3.300   0.3413   0.00986   0.00337  -0.1563  0.7423  0.1113  -1.4747   0.0000   0.0000   0.0000   0.7148
  -3.200   0.3529   0.00979   0.00332  -0.1564  0.7409  0.1203  -1.4235   0.0000   0.0000   0.0000   0.6995
  -3.100   0.3647   0.00972   0.00327  -0.1566  0.7397  0.1300  -1.3724   0.0000   0.0000   0.0000   0.6852
  -3.000   0.3764   0.00966   0.00323  -0.1567  0.7386  0.1401  -1.3217   0.0000   0.0000   0.0000   0.6718
  -2.900   0.3877   0.00959   0.00320  -0.1568  0.7369  0.1502  -1.2723   0.0000   0.0000   0.0000   0.6595
  -2.800   0.3992   0.00953   0.00317  -0.1569  0.7352  0.1609  -1.2231   0.0000   0.0000   0.0000   0.6477
  -2.700   0.4107   0.00947   0.00315  -0.1570  0.7336  0.1724  -1.1740   0.0000   0.0000   0.0000   0.6366
  -2.600   0.4223   0.00941   0.00312  -0.1571  0.7322  0.1843  -1.1251   0.0000   0.0000   0.0000   0.6260
  -2.500   0.4340   0.00935   0.00308  -0.1573  0.7307  0.1967  -1.0766   0.0000   0.0000   0.0000   0.6160
  -2.400   0.4458   0.00929   0.00305  -0.1574  0.7294  0.2095  -1.0316   0.0000   0.0000   0.0000   0.6065
  -2.300   0.4574   0.00925   0.00303  -0.1575  0.7280  0.2225  -0.9881   0.0000   0.0000   0.0000   0.5975
  -2.200   0.4687   0.00919   0.00302  -0.1576  0.7261  0.2352  -0.9456   0.0000   0.0000   0.0000   0.5890
  -2.100   0.4801   0.00914   0.00300  -0.1577  0.7242  0.2475  -0.9033   0.0000   0.0000   0.0000   0.5809
  -2.000   0.4917   0.00909   0.00297  -0.1578  0.7225  0.2595  -0.8611   0.0000   0.0000   0.0000   0.5732
  -1.900   0.5033   0.00904   0.00295  -0.1579  0.7209  0.2724  -0.8290   0.0000   0.0000   0.0000   0.5657
  -1.800   0.5150   0.00899   0.00292  -0.1580  0.7195  0.2864  -0.8370   0.0000   0.0000   0.0000   0.5586
  -1.700   0.5267   0.00896   0.00291  -0.1582  0.7181  0.3005  -0.8451   0.0000   0.0000   0.0000   0.5518
  -1.600   0.5380   0.00891   0.00291  -0.1582  0.7162  0.3145  -0.8528   0.0000   0.0000   0.0000   0.5454
  -1.500   0.5494   0.00886   0.00291  -0.1583  0.7143  0.3293  -0.8607   0.0000   0.0000   0.0000   0.5392
  -1.400   0.5610   0.00881   0.00290  -0.1584  0.7126  0.3459  -0.8687   0.0000   0.0000   0.0000   0.5332
  -1.300   0.5726   0.00877   0.00289  -0.1586  0.7111  0.3632  -0.8767   0.0000   0.0000   0.0000   0.5275
  -1.200   0.5843   0.00872   0.00288  -0.1587  0.7096  0.3803  -0.8847   0.0000   0.0000   0.0000   0.5220
  -1.100   0.5960   0.00869   0.00287  -0.1588  0.7083  0.3976  -0.8929   0.0000   0.0000   0.0000   0.5167
  -1.000   0.6074   0.00865   0.00288  -0.1589  0.7064  0.4146  -0.9007   0.0000   0.0000   0.0000   0.5116
  -0.900   0.6187   0.00861   0.00288  -0.1590  0.7045  0.4310  -0.9095   0.0000   0.0000   0.0000   0.5068
  -0.800   0.6302   0.00856   0.00289  -0.1591  0.7026  0.4484  -0.9186   0.0000   0.0000   0.0000   0.5020
  -0.700   0.6418   0.00852   0.00289  -0.1592  0.7009  0.4674  -0.9278   0.0000   0.0000   0.0000   0.4975
  -0.600   0.6534   0.00848   0.00289  -0.1593  0.6994  0.4869  -0.9370   0.0000   0.0000   0.0000   0.4931
  -0.500   0.6650   0.00846   0.00288  -0.1594  0.6979  0.5068  -0.9463   0.0000   0.0000   0.0000   0.4888
  -0.400   0.6763   0.00841   0.00290  -0.1594  0.6960  0.5274  -0.9553   0.0000   0.0000   0.0000   0.4847
  -0.300   0.6875   0.00836   0.00292  -0.1595  0.6938  0.5502  -0.9646   0.0000   0.0000   0.0000   0.4807
  -0.200   0.6988   0.00831   0.00294  -0.1595  0.6916  0.5734  -0.9739   0.0000   0.0000   0.0000   0.4769
  -0.100   0.7102   0.00827   0.00295  -0.1595  0.6897  0.5967  -0.9833   0.0000   0.0000   0.0000   0.4731
   0.000   0.7216   0.00823   0.00295  -0.1596  0.6880  0.6194  -0.9928   0.0000   0.0000   0.0000   0.4695
   0.100   0.7328   0.00821   0.00297  -0.1596  0.6860  0.6401  -1.0021   0.0000   0.0000   0.0000   0.4659
   0.200   0.7438   0.00817   0.00301  -0.1595  0.6836  0.6609  -1.0113   0.0000   0.0000   0.0000   0.4625
   0.300   0.7548   0.00814   0.00303  -0.1595  0.6815  0.6816  -1.0205   0.0000   0.0000   0.0000   0.4591
   0.400   0.7660   0.00813   0.00305  -0.1594  0.6795  0.7014  -1.0298   0.0000   0.0000   0.0000   0.4559
   0.500   0.7770   0.00811   0.00307  -0.1594  0.6778  0.7196  -1.0391   0.0000   0.0000   0.0000   0.4527
   0.600   0.7882   0.00811   0.00308  -0.1593  0.6761  0.7369  -1.0485   0.0000   0.0000   0.0000   0.4496
   0.700   0.7990   0.00810   0.00312  -0.1592  0.6738  0.7518  -1.0576   0.0000   0.0000   0.0000   0.4466
   0.800   0.8098   0.00809   0.00314  -0.1591  0.6716  0.7651  -1.0669   0.0000   0.0000   0.0000   0.4436
   0.900   0.8207   0.00809   0.00316  -0.1590  0.6695  0.7774  -1.0775   0.0000   0.0000   0.0000   0.4407
   1.000   0.8316   0.00809   0.00317  -0.1589  0.6677  0.7888  -1.0881   0.0000   0.0000   0.0000   0.4379
   1.100   0.8426   0.00810   0.00317  -0.1589  0.6659  0.7996  -1.0989   0.0000   0.0000   0.0000   0.4352
   1.200   0.8531   0.00809   0.00321  -0.1587  0.6633  0.8104  -1.1092   0.0000   0.0000   0.0000   0.4326
   1.300   0.8636   0.00808   0.00323  -0.1585  0.6607  0.8213  -1.1196   0.0000   0.0000   0.0000   0.4299
   1.400   0.8740   0.00807   0.00323  -0.1583  0.6582  0.8324  -1.1300   0.0000   0.0000   0.0000   0.4274
   1.500   0.8844   0.00807   0.00323  -0.1581  0.6561  0.8437  -1.1407   0.0000   0.0000   0.0000   0.4249
   1.600   0.8945   0.00807   0.00326  -0.1578  0.6533  0.8551  -1.1512   0.0000   0.0000   0.0000   0.4224
   1.700   0.9043   0.00805   0.00327  -0.1575  0.6504  0.8666  -1.1616   0.0000   0.0000   0.0000   0.4200
   1.900   0.9235   0.00804   0.00327  -0.1567  0.6455  0.8907  -1.1821   0.0000   0.0000   0.0000   0.4152
   2.000   0.9326   0.00802   0.00329  -0.1561  0.6429  0.9042  -1.1920   0.0000   0.0000   0.0000   0.4129
   2.100   0.9411   0.00799   0.00329  -0.1555  0.6400  0.9195  -1.2015   0.0000   0.0000   0.0000   0.4105
   2.200   0.9494   0.00795   0.00328  -0.1548  0.6375  0.9407  -1.2126   0.0000   0.0000   0.0000   0.4082
   2.300   0.9618   0.00791   0.00323  -0.1550  0.6352  1.0000  -1.2270   0.0000   0.0000   0.0000   0.4062
   2.400   0.9735   0.00795   0.00325  -0.1551  0.6327  1.0000  -1.2407   0.0000   0.0000   0.0000   0.4043
   2.500   0.9850   0.00798   0.00328  -0.1553  0.6297  1.0000  -1.2543   0.0000   0.0000   0.0000   0.4024
   2.600   0.9964   0.00802   0.00330  -0.1554  0.6268  1.0000  -1.2680   0.0000   0.0000   0.0000   0.4006
   2.700   1.0078   0.00806   0.00332  -0.1555  0.6243  1.0000  -1.2816   0.0000   0.0000   0.0000   0.3988
   2.800   1.0192   0.00810   0.00335  -0.1555  0.6212  1.0000  -1.2953   0.0000   0.0000   0.0000   0.3970
   2.900   1.0304   0.00814   0.00338  -0.1556  0.6178  1.0000  -1.3088   0.0000   0.0000   0.0000   0.3953
   3.000   1.0416   0.00818   0.00340  -0.1557  0.6146  1.0000  -1.3224   0.0000   0.0000   0.0000   0.3935
   3.100   1.0527   0.00823   0.00342  -0.1557  0.6115  1.0000  -1.3360   0.0000   0.0000   0.0000   0.3919
   3.200   1.0639   0.00827   0.00346  -0.1557  0.6077  1.0000  -1.3496   0.0000   0.0000   0.0000   0.3902
   3.300   1.0748   0.00832   0.00349  -0.1557  0.6042  1.0000  -1.3631   0.0000   0.0000   0.0000   0.3886
   3.400   1.0858   0.00838   0.00352  -0.1557  0.6010  1.0000  -1.3767   0.0000   0.0000   0.0000   0.3870
   3.500   1.0969   0.00842   0.00356  -0.1558  0.5972  1.0000  -1.3902   0.0000   0.0000   0.0000   0.3854
   3.600   1.1078   0.00847   0.00360  -0.1557  0.5937  1.0000  -1.4038   0.0000   0.0000   0.0000   0.3839
   3.700   1.1186   0.00854   0.00363  -0.1557  0.5907  1.0000  -1.4173   0.0000   0.0000   0.0000   0.3824
   3.800   1.1296   0.00858   0.00368  -0.1557  0.5870  1.0000  -1.4312   0.0000   0.0000   0.0000   0.3809
   3.900   1.1404   0.00864   0.00373  -0.1557  0.5835  1.0000  -1.4452   0.0000   0.0000   0.0000   0.3794
   4.000   1.1511   0.00871   0.00377  -0.1557  0.5804  1.0000  -1.4601   0.0000   0.0000   0.0000   0.3780
   4.100   1.1620   0.00876   0.00383  -0.1557  0.5766  1.0000  -1.4755   0.0000   0.0000   0.0000   0.3766
   4.200   1.1726   0.00882   0.00388  -0.1556  0.5728  1.0000  -1.4909   0.0000   0.0000   0.0000   0.3752
   4.300   1.1831   0.00890   0.00393  -0.1555  0.5695  1.0000  -1.5065   0.0000   0.0000   0.0000   0.3738
   4.400   1.1939   0.00896   0.00399  -0.1555  0.5656  1.0000  -1.5224   0.0000   0.0000   0.0000   0.3724
   4.500   1.2044   0.00903   0.00404  -0.1554  0.5616  1.0000  -1.5381   0.0000   0.0000   0.0000   0.3711
   4.600   1.2147   0.00911   0.00410  -0.1553  0.5580  1.0000  -1.5537   0.0000   0.0000   0.0000   0.3698
   4.700   1.2253   0.00917   0.00417  -0.1553  0.5536  1.0000  -1.5703   0.0000   0.0000   0.0000   0.3685
   4.800   1.2355   0.00925   0.00423  -0.1551  0.5494  1.0000  -1.5869   0.0000   0.0000   0.0000   0.3672
   4.900   1.2458   0.00933   0.00429  -0.1550  0.5451  1.0000  -1.6036   0.0000   0.0000   0.0000   0.3659
   5.000   1.2560   0.00941   0.00436  -0.1549  0.5404  1.0000  -1.6203   0.0000   0.0000   0.0000   0.3647
   5.100   1.2659   0.00951   0.00443  -0.1547  0.5363  1.0000  -1.6368   0.0000   0.0000   0.0000   0.3634
   5.200   1.2762   0.00958   0.00450  -0.1546  0.5316  1.0000  -1.6536   0.0000   0.0000   0.0000   0.3622
   5.300   1.2862   0.00968   0.00458  -0.1545  0.5273  1.0000  -1.6720   0.0000   0.0000   0.0000   0.3610
   5.400   1.2962   0.00977   0.00466  -0.1543  0.5230  1.0000  -1.6917   0.0000   0.0000   0.0000   0.3598
   5.500   1.3062   0.00985   0.00474  -0.1541  0.5185  1.0000  -1.7114   0.0000   0.0000   0.0000   0.3586
   5.600   1.3158   0.00997   0.00483  -0.1539  0.5144  1.0000  -1.7308   0.0000   0.0000   0.0000   0.3574
   5.700   1.3258   0.01005   0.00491  -0.1538  0.5096  1.0000  -1.7507   0.0000   0.0000   0.0000   0.3563
   5.800   1.3353   0.01017   0.00500  -0.1535  0.5050  1.0000  -1.7701   0.0000   0.0000   0.0000   0.3551
   5.900   1.3451   0.01026   0.00509  -0.1533  0.5003  1.0000  -1.7898   0.0000   0.0000   0.0000   0.3540
   6.000   1.3546   0.01037   0.00519  -0.1531  0.4953  1.0000  -1.8093   0.0000   0.0000   0.0000   0.3529
   6.100   1.3639   0.01049   0.00529  -0.1528  0.4905  1.0000  -1.8304   0.0000   0.0000   0.0000   0.3518
   6.200   1.3733   0.01060   0.00539  -0.1526  0.4852  1.0000  -1.8547   0.0000   0.0000   0.0000   0.3507
   6.300   1.3823   0.01073   0.00550  -0.1523  0.4803  1.0000  -1.8786   0.0000   0.0000   0.0000   0.3496
   6.400   1.3917   0.01084   0.00560  -0.1520  0.4748  1.0000  -1.9030   0.0000   0.0000   0.0000   0.3485
   6.500   1.4004   0.01098   0.00572  -0.1516  0.4698  1.0000  -1.9268   0.0000   0.0000   0.0000   0.3474
   6.600   1.4097   0.01109   0.00583  -0.1514  0.4644  1.0000  -1.9513   0.0000   0.0000   0.0000   0.3463
   6.700   1.4181   0.01125   0.00595  -0.1510  0.4595  1.0000  -1.9748   0.0000   0.0000   0.0000   0.3453
   6.800   1.4274   0.01136   0.00606  -0.1507  0.4542  1.0000  -1.9995   0.0000   0.0000   0.0000   0.3442
   6.900   1.4356   0.01151   0.00619  -0.1502  0.4492  1.0000  -2.0230   0.0000   0.0000   0.0000   0.3432
   7.000   1.4445   0.01164   0.00632  -0.1499  0.4438  1.0000  -2.0473   0.0000   0.0000   0.0000   0.3421
   7.100   1.4524   0.01181   0.00646  -0.1494  0.4385  1.0000  -2.0704   0.0000   0.0000   0.0000   0.3411
   7.200   1.4610   0.01194   0.00659  -0.1490  0.4327  1.0000  -2.0945   0.0000   0.0000   0.0000   0.3400
   7.400   1.4768   0.01226   0.00687  -0.1481  0.4214  1.0000  -2.1445   0.0000   0.0000   0.0000   0.3380
   7.500   1.4839   0.01245   0.00703  -0.1474  0.4160  1.0000  -2.1735   0.0000   0.0000   0.0000   0.3369
   7.600   1.4919   0.01260   0.00717  -0.1470  0.4101  1.0000  -2.2040   0.0000   0.0000   0.0000   0.3359
   7.700   1.4982   0.01279   0.00734  -0.1462  0.4048  1.0000  -2.2318   0.0000   0.0000   0.0000   0.3348
   7.800   1.5056   0.01294   0.00749  -0.1456  0.3991  1.0000  -2.2616   0.0000   0.0000   0.0000   0.3338
   7.900   1.5119   0.01314   0.00767  -0.1448  0.3939  1.0000  -2.2896   0.0000   0.0000   0.0000   0.3327
   8.000   1.5191   0.01331   0.00783  -0.1442  0.3883  1.0000  -2.3193   0.0000   0.0000   0.0000   0.3317
   8.100   1.5252   0.01353   0.00803  -0.1434  0.3832  1.0000  -2.3471   0.0000   0.0000   0.0000   0.3306
   8.200   1.5320   0.01371   0.00821  -0.1428  0.3777  1.0000  -2.3765   0.0000   0.0000   0.0000   0.3296
   8.300   1.5377   0.01395   0.00842  -0.1420  0.3729  1.0000  -2.4039   0.0000   0.0000   0.0000   0.3286
   8.400   1.5447   0.01414   0.00860  -0.1414  0.3677  1.0000  -2.4335   0.0000   0.0000   0.0000   0.3276
   8.600   1.5570   0.01459   0.00903  -0.1399  0.3575  1.0000  -2.4903   0.0000   0.0000   0.0000   0.3256
   8.800   1.5685   0.01508   0.00951  -0.1384  0.3468  1.0000  -2.5462   0.0000   0.0000   0.0000   0.3237
   8.900   1.5733   0.01537   0.00978  -0.1375  0.3416  1.0000  -2.5726   0.0000   0.0000   0.0000   0.3227
   9.000   1.5794   0.01562   0.01002  -0.1368  0.3355  1.0000  -2.6011   0.0000   0.0000   0.0000   0.3217
   9.100   1.5841   0.01593   0.01031  -0.1360  0.3299  1.0000  -2.6348   0.0000   0.0000   0.0000   0.3207
   9.200   1.5892   0.01623   0.01059  -0.1352  0.3239  1.0000  -2.6736   0.0000   0.0000   0.0000   0.3198
   9.300   1.5941   0.01655   0.01089  -0.1344  0.3183  1.0000  -2.7132   0.0000   0.0000   0.0000   0.3189
   9.400   1.5986   0.01690   0.01122  -0.1336  0.3126  1.0000  -2.7533   0.0000   0.0000   0.0000   0.3179
   9.500   1.6038   0.01721   0.01153  -0.1328  0.3071  1.0000  -2.7975   0.0000   0.0000   0.0000   0.3170
   9.600   1.6078   0.01760   0.01189  -0.1320  0.3018  1.0000  -2.8483   0.0000   0.0000   0.0000   0.3161
   9.700   1.6132   0.01792   0.01220  -0.1313  0.2963  1.0000  -2.9034   0.0000   0.0000   0.0000   0.3152
   9.900   1.6225   0.01865   0.01292  -0.1298  0.2856  1.0000  -3.0101   0.0000   0.0000   0.0000   0.3135
  10.000   1.6264   0.01907   0.01332  -0.1290  0.2806  1.0000  -3.0617   0.0000   0.0000   0.0000   0.3126
  10.100   1.6314   0.01944   0.01368  -0.1283  0.2751  1.0000  -3.1168   0.0000   0.0000   0.0000   0.3118
  10.200   1.6353   0.01987   0.01409  -0.1275  0.2702  1.0000  -3.1687   0.0000   0.0000   0.0000   0.3109
  10.300   1.6398   0.02027   0.01449  -0.1268  0.2651  1.0000  -3.2228   0.0000   0.0000   0.0000   0.3101
  10.400   1.6435   0.02072   0.01493  -0.1260  0.2605  1.0000  -3.2749   0.0000   0.0000   0.0000   0.3092
  10.500   1.6478   0.02116   0.01535  -0.1253  0.2553  1.0000  -3.3289   0.0000   0.0000   0.0000   0.3084
  10.600   1.6514   0.02163   0.01581  -0.1246  0.2505  1.0000  -3.3809   0.0000   0.0000   0.0000   0.3076
  10.700   1.6551   0.02211   0.01628  -0.1238  0.2452  1.0000  -3.4334   0.0000   0.0000   0.0000   0.3068
  10.800   1.6586   0.02260   0.01676  -0.1231  0.2400  1.0000  -3.4856   0.0000   0.0000   0.0000   0.3060
  10.900   1.6615   0.02314   0.01728  -0.1223  0.2347  1.0000  -3.5358   0.0000   0.0000   0.0000   0.3052
  11.000   1.6653   0.02363   0.01776  -0.1216  0.2292  1.0000  -3.5896   0.0000   0.0000   0.0000   0.3044
  11.100   1.6679   0.02420   0.01832  -0.1208  0.2239  1.0000  -3.6390   0.0000   0.0000   0.0000   0.3036
  11.200   1.6713   0.02472   0.01883  -0.1201  0.2182  1.0000  -3.6919   0.0000   0.0000   0.0000   0.3029
  11.300   1.6741   0.02530   0.01938  -0.1194  0.2130  1.0000  -3.7427   0.0000   0.0000   0.0000   0.3021
  11.400   1.6765   0.02590   0.01996  -0.1186  0.2078  1.0000  -3.7922   0.0000   0.0000   0.0000   0.3013
  11.500   1.6796   0.02645   0.02051  -0.1179  0.2028  1.0000  -3.8447   0.0000   0.0000   0.0000   0.3006
  11.700   1.6848   0.02765   0.02169  -0.1164  0.1932  1.0000  -3.9459   0.0000   0.0000   0.0000   0.2991
  11.800   1.6866   0.02832   0.02234  -0.1156  0.1888  1.0000  -3.9940   0.0000   0.0000   0.0000   0.2984
  11.900   1.6896   0.02890   0.02292  -0.1150  0.1841  1.0000  -4.0468   0.0000   0.0000   0.0000   0.2977
  12.000   1.6915   0.02957   0.02358  -0.1142  0.1797  1.0000  -4.0957   0.0000   0.0000   0.0000   0.2969
  12.100   1.6941   0.03019   0.02420  -0.1135  0.1749  1.0000  -4.1473   0.0000   0.0000   0.0000   0.2962
  12.200   1.6961   0.03086   0.02486  -0.1128  0.1706  1.0000  -4.1970   0.0000   0.0000   0.0000   0.2955
  12.300   1.6980   0.03154   0.02552  -0.1121  0.1659  1.0000  -4.2463   0.0000   0.0000   0.0000   0.2948
  12.400   1.7001   0.03221   0.02619  -0.1114  0.1617  1.0000  -4.2964   0.0000   0.0000   0.0000   0.2941
  12.500   1.7014   0.03294   0.02691  -0.1107  0.1574  1.0000  -4.3439   0.0000   0.0000   0.0000   0.2934
  12.600   1.7034   0.03363   0.02760  -0.1100  0.1533  1.0000  -4.3939   0.0000   0.0000   0.0000   0.2928
  12.700   1.7044   0.03442   0.02837  -0.1093  0.1494  1.0000  -4.4401   0.0000   0.0000   0.0000   0.2921
  12.800   1.7063   0.03513   0.02908  -0.1086  0.1455  1.0000  -4.4902   0.0000   0.0000   0.0000   0.2914
  12.900   1.7070   0.03595   0.02989  -0.1079  0.1418  1.0000  -4.5358   0.0000   0.0000   0.0000   0.2908
  13.000   1.7091   0.03666   0.03061  -0.1073  0.1380  1.0000  -4.5867   0.0000   0.0000   0.0000   0.2901
  13.100   1.7098   0.03749   0.03143  -0.1066  0.1343  1.0000  -4.6326   0.0000   0.0000   0.0000   0.2895
  13.200   1.7116   0.03824   0.03219  -0.1060  0.1306  1.0000  -4.6826   0.0000   0.0000   0.0000   0.2889
  13.300   1.7121   0.03910   0.03304  -0.1054  0.1271  1.0000  -4.7280   0.0000   0.0000   0.0000   0.2882
  13.400   1.7137   0.03988   0.03383  -0.1048  0.1236  1.0000  -4.7774   0.0000   0.0000   0.0000   0.2876
  13.500   1.7142   0.04076   0.03470  -0.1042  0.1202  1.0000  -4.8228   0.0000   0.0000   0.0000   0.2870
  13.600   1.7155   0.04159   0.03553  -0.1036  0.1169  1.0000  -4.8714   0.0000   0.0000   0.0000   0.2864
  13.700   1.7161   0.04249   0.03643  -0.1030  0.1136  1.0000  -4.9170   0.0000   0.0000   0.0000   0.2858
  13.800   1.7169   0.04337   0.03732  -0.1024  0.1104  1.0000  -4.9641   0.0000   0.0000   0.0000   0.2853
  13.900   1.7175   0.04430   0.03824  -0.1019  0.1073  1.0000  -5.0097   0.0000   0.0000   0.0000   0.2847
  14.000   1.7179   0.04523   0.03917  -0.1013  0.1044  1.0000  -5.0552   0.0000   0.0000   0.0000   0.2841
  14.100   1.7187   0.04614   0.04009  -0.1008  0.1013  1.0000  -5.1022   0.0000   0.0000   0.0000   0.2836
  14.200   1.7185   0.04716   0.04110  -0.1003  0.0987  1.0000  -5.1450   0.0000   0.0000   0.0000   0.2831
  14.300   1.7196   0.04804   0.04200  -0.0998  0.0958  1.0000  -5.1936   0.0000   0.0000   0.0000   0.2825
  14.400   1.7193   0.04908   0.04304  -0.0993  0.0932  1.0000  -5.2359   0.0000   0.0000   0.0000   0.2820
  14.500   1.7202   0.05001   0.04398  -0.0988  0.0906  1.0000  -5.2838   0.0000   0.0000   0.0000   0.2815
  14.600   1.7205   0.05102   0.04500  -0.0983  0.0881  1.0000  -5.3287   0.0000   0.0000   0.0000   0.2810
  14.700   1.7205   0.05206   0.04605  -0.0979  0.0859  1.0000  -5.3726   0.0000   0.0000   0.0000   0.2805
  14.800   1.7213   0.05302   0.04702  -0.0975  0.0835  1.0000  -5.4205   0.0000   0.0000   0.0000   0.2800
  14.900   1.7210   0.05412   0.04813  -0.0970  0.0813  1.0000  -5.4627   0.0000   0.0000   0.0000   0.2795
  15.000   1.7214   0.05514   0.04916  -0.0967  0.0793  1.0000  -5.5088   0.0000   0.0000   0.0000   0.2790
  15.100   1.7216   0.05620   0.05023  -0.0963  0.0771  1.0000  -5.5537   0.0000   0.0000   0.0000   0.2786
  15.200   1.7208   0.05738   0.05142  -0.0959  0.0753  1.0000  -5.5938   0.0000   0.0000   0.0000   0.2781
  15.300   1.7213   0.05841   0.05247  -0.0955  0.0734  1.0000  -5.6405   0.0000   0.0000   0.0000   0.2777
  15.400   1.7212   0.05951   0.05359  -0.0952  0.0715  1.0000  -5.6842   0.0000   0.0000   0.0000   0.2773
  15.500   1.7202   0.06073   0.05482  -0.0948  0.0697  1.0000  -5.7234   0.0000   0.0000   0.0000   0.2769
  15.600   1.7202   0.06183   0.05594  -0.0945  0.0680  1.0000  -5.7675   0.0000   0.0000   0.0000   0.2764
  15.700   1.7200   0.06297   0.05710  -0.0942  0.0663  1.0000  -5.8107   0.0000   0.0000   0.0000   0.2760
  15.800   1.7187   0.06424   0.05838  -0.0939  0.0647  1.0000  -5.8489   0.0000   0.0000   0.0000   0.2756
  15.900   1.7181   0.06545   0.05961  -0.0936  0.0632  1.0000  -5.8901   0.0000   0.0000   0.0000   0.2753
  16.000   1.7182   0.06658   0.06077  -0.0934  0.0615  1.0000  -5.9347   0.0000   0.0000   0.0000   0.2749
  16.100   1.7171   0.06787   0.06208  -0.0931  0.0599  1.0000  -5.9732   0.0000   0.0000   0.0000   0.2745
  16.200   1.7156   0.06921   0.06343  -0.0929  0.0585  1.0000  -6.0100   0.0000   0.0000   0.0000   0.2742
  16.300   1.7155   0.07039   0.06464  -0.0927  0.0570  1.0000  -6.0537   0.0000   0.0000   0.0000   0.2738
  16.400   1.7146   0.07168   0.06595  -0.0925  0.0555  1.0000  -6.0931   0.0000   0.0000   0.0000   0.2735
  16.500   1.7125   0.07311   0.06740  -0.0923  0.0542  1.0000  -6.1269   0.0000   0.0000   0.0000   0.2732
  16.600   1.7118   0.07439   0.06870  -0.0921  0.0528  1.0000  -6.1674   0.0000   0.0000   0.0000   0.2729
  16.700   1.7112   0.07567   0.07001  -0.0920  0.0514  1.0000  -6.2080   0.0000   0.0000   0.0000   0.2726
  16.800   1.7094   0.07708   0.07144  -0.0919  0.0500  1.0000  -6.2432   0.0000   0.0000   0.0000   0.2723
  16.900   1.7070   0.07858   0.07296  -0.0917  0.0489  1.0000  -6.2748   0.0000   0.0000   0.0000   0.2721
  17.000   1.7063   0.07988   0.07429  -0.0916  0.0476  1.0000  -6.3146   0.0000   0.0000   0.0000   0.2718
  17.100   1.7047   0.08129   0.07572  -0.0915  0.0463  1.0000  -6.3501   0.0000   0.0000   0.0000   0.2716
  17.200   1.7021   0.08284   0.07729  -0.0915  0.0452  1.0000  -6.3805   0.0000   0.0000   0.0000   0.2714
  17.300   1.6996   0.08439   0.07886  -0.0914  0.0441  1.0000  -6.4111   0.0000   0.0000   0.0000   0.2712
  17.400   1.6982   0.08581   0.08032  -0.0914  0.0430  1.0000  -6.4471   0.0000   0.0000   0.0000   0.2709
  17.500   1.6961   0.08733   0.08186  -0.0914  0.0419  1.0000  -6.4794   0.0000   0.0000   0.0000   0.2707
  17.600   1.6930   0.08899   0.08354  -0.0914  0.0409  1.0000  -6.5064   0.0000   0.0000   0.0000   0.2706
  17.700   1.6897   0.09070   0.08527  -0.0915  0.0400  1.0000  -6.5316   0.0000   0.0000   0.0000   0.2705
  17.800   1.6882   0.09216   0.08678  -0.0915  0.0390  1.0000  -6.5664   0.0000   0.0000   0.0000   0.2703
  17.900   1.6860   0.09373   0.08837  -0.0916  0.0380  1.0000  -6.5971   0.0000   0.0000   0.0000   0.2702
  18.000   1.6828   0.09544   0.09011  -0.0917  0.0371  1.0000  -6.6225   0.0000   0.0000   0.0000   0.2701
  18.100   1.6790   0.09725   0.09194  -0.0918  0.0363  1.0000  -6.6439   0.0000   0.0000   0.0000   0.2701
  18.200   1.6764   0.09890   0.09363  -0.0920  0.0355  1.0000  -6.6716   0.0000   0.0000   0.0000   0.2700
  18.300   1.6746   0.10043   0.09519  -0.0921  0.0346  1.0000  -6.7037   0.0000   0.0000   0.0000   0.2699
  18.400   1.6717   0.10211   0.09691  -0.0923  0.0338  1.0000  -6.7296   0.0000   0.0000   0.0000   0.2698
  18.500   1.6683   0.10387   0.09869  -0.0925  0.0330  1.0000  -6.7586   0.0000   0.0000   0.0000   0.2698
  18.600   1.6640   0.10578   0.10063  -0.0928  0.0324  1.0000  -6.7819   0.0000   0.0000   0.0000   0.2698
  18.700   1.6612   0.10749   0.10237  -0.0930  0.0317  1.0000  -6.8144   0.0000   0.0000   0.0000   0.2698
  18.800   1.6590   0.10910   0.10402  -0.0933  0.0309  1.0000  -6.8508   0.0000   0.0000   0.0000   0.2698
  18.900   1.6564   0.11080   0.10575  -0.0936  0.0302  1.0000  -6.8843   0.0000   0.0000   0.0000   0.2698
  19.000   1.6530   0.11262   0.10760  -0.0939  0.0296  1.0000  -6.9124   0.0000   0.0000   0.0000   0.2699
  19.100   1.6493   0.11450   0.10951  -0.0943  0.0290  1.0000  -6.9376   0.0000   0.0000   0.0000   0.2700
  19.200   1.6446   0.11654   0.11157  -0.0948  0.0285  1.0000  -6.9561   0.0000   0.0000   0.0000   0.2701
  19.300   1.6427   0.11816   0.11323  -0.0951  0.0279  1.0000  -6.9928   0.0000   0.0000   0.0000   0.2702
  19.400   1.6404   0.11984   0.11496  -0.0955  0.0272  1.0000  -7.0266   0.0000   0.0000   0.0000   0.2702
  19.500   1.6377   0.12159   0.11674  -0.0959  0.0266  1.0000  -7.0578   0.0000   0.0000   0.0000   0.2703
  19.600   1.6345   0.12345   0.11862  -0.0964  0.0261  1.0000  -7.0844   0.0000   0.0000   0.0000   0.2705
  19.700   1.6309   0.12535   0.12055  -0.0970  0.0256  1.0000  -7.1087   0.0000   0.0000   0.0000   0.2707
  19.800   1.6265   0.12739   0.12262  -0.0976  0.0252  1.0000  -7.1268   0.0000   0.0000   0.0000   0.2709
  19.900   1.6230   0.12931   0.12457  -0.0981  0.0248  1.0000  -7.1500   0.0000   0.0000   0.0000   0.2712
  20.000   1.6209   0.13099   0.12630  -0.0987  0.0243  1.0000  -7.1825   0.0000   0.0000   0.0000   0.2713


