xflr5 v6.57

 Calculated polar for: rev_root_140

 1 1 Reynolds number fixed          Mach number fixed         

 xtrf =   1.000 (top)        1.000 (bottom)
 Mach =   0.000     Re =     0.280 e 6     Ncrit =   9.000

  alpha     CL        CD       CDp       Cm    Top Xtr Bot Xtr   Cpmin    Chinge    XCp    
 ------- -------- --------- --------- -------- ------- ------- -------- --------- ---------
  -8.500  -0.1791   0.04388   0.04011  -0.1411  0.8669  0.0412  -3.4785   0.0000   0.0000   0.0000  -0.5756
  -8.400  -0.1719   0.04331   0.03955  -0.1413  0.8648  0.0413  -3.4166   0.0000   0.0000   0.0000  -0.6105
  -8.300  -0.1644   0.04277   0.03900  -0.1416  0.8631  0.0415  -3.3539   0.0000   0.0000   0.0000  -0.6505
  -8.200  -0.1565   0.04233   0.03855  -0.1419  0.8616  0.0418  -3.2870   0.0000   0.0000   0.0000  -0.6971
  -8.100  -0.1484   0.04205   0.03827  -0.1420  0.8596  0.0421  -3.2149   0.0000   0.0000   0.0000  -0.7495
  -8.000  -0.1393   0.04212   0.03835  -0.1419  0.8575  0.0427  -3.1267   0.0000   0.0000   0.0000  -0.8127
  -7.900  -0.1598   0.02943   0.02439  -0.1519  0.8538  0.0378  -3.7225   0.0000   0.0000   0.0000  -0.7406
  -7.800  -0.1510   0.02842   0.02321  -0.1525  0.8525  0.0382  -3.6894   0.0000   0.0000   0.0000  -0.8013
  -7.700  -0.1429   0.02744   0.02208  -0.1529  0.8502  0.0386  -3.6638   0.0000   0.0000   0.0000  -0.8637
  -7.600  -0.1342   0.02643   0.02090  -0.1533  0.8483  0.0389  -3.6392   0.0000   0.0000   0.0000  -0.9386
  -7.500  -0.1249   0.02545   0.01972  -0.1537  0.8466  0.0392  -3.6130   0.0000   0.0000   0.0000  -1.0291
  -7.400  -0.1152   0.02453   0.01860  -0.1541  0.8452  0.0395  -3.5830   0.0000   0.0000   0.0000  -1.1395
  -7.300  -0.1050   0.02368   0.01756  -0.1544  0.8440  0.0397  -3.5484   0.0000   0.0000   0.0000  -1.2761
  -7.200  -0.0954   0.02297   0.01670  -0.1545  0.8420  0.0400  -3.5110   0.0000   0.0000   0.0000  -1.4308
  -7.100  -0.0854   0.02234   0.01591  -0.1546  0.8401  0.0402  -3.4694   0.0000   0.0000   0.0000  -1.6276
  -7.000  -0.0750   0.02177   0.01519  -0.1548  0.8385  0.0405  -3.4236   0.0000   0.0000   0.0000  -1.8902
  -6.900  -0.0641   0.02130   0.01454  -0.1549  0.8371  0.0408  -3.3735   0.0000   0.0000   0.0000  -2.2544
  -6.800  -0.0537   0.02062   0.01383  -0.1550  0.8359  0.0412  -3.3208   0.0000   0.0000   0.0000  -2.7418
  -6.700  -0.0429   0.02019   0.01339  -0.1552  0.8347  0.0416  -3.2595   0.0000   0.0000   0.0000  -3.4928
  -6.600  -0.0330   0.01993   0.01313  -0.1551  0.8325  0.0422  -3.1981   0.0000   0.0000   0.0000  -4.6178
  -6.500  -0.0225   0.01968   0.01287  -0.1552  0.8307  0.0428  -3.1359   0.0000   0.0000   0.0000  -6.8899
  -6.400  -0.0116   0.01940   0.01255  -0.1552  0.8291  0.0435  -3.0765   0.0000   0.0000   0.0000  -13.5666
  -6.300  -0.0005   0.01908   0.01216  -0.1553  0.8277  0.0442  -3.0212   0.0000   0.0000   0.0000  -347.5717
  -6.200   0.0109   0.01875   0.01173  -0.1554  0.8265  0.0448  -2.9688   0.0000   0.0000   0.0000  14.9502
  -6.100   0.0219   0.01845   0.01133  -0.1554  0.8250  0.0454  -2.9191   0.0000   0.0000   0.0000   7.5775
  -6.000   0.0325   0.01820   0.01098  -0.1553  0.8230  0.0459  -2.8703   0.0000   0.0000   0.0000   5.1852
  -5.900   0.0427   0.01775   0.01058  -0.1553  0.8213  0.0465  -2.8156   0.0000   0.0000   0.0000   3.9959
  -5.800   0.0536   0.01746   0.01030  -0.1554  0.8198  0.0471  -2.7550   0.0000   0.0000   0.0000   3.2360
  -5.700   0.0648   0.01722   0.01005  -0.1554  0.8185  0.0478  -2.6941   0.0000   0.0000   0.0000   2.7191
  -5.600   0.0763   0.01699   0.00978  -0.1555  0.8174  0.0486  -2.6347   0.0000   0.0000   0.0000   2.3485
  -5.500   0.0873   0.01677   0.00953  -0.1555  0.8160  0.0495  -2.5785   0.0000   0.0000   0.0000   2.0815
  -5.400   0.0978   0.01658   0.00930  -0.1555  0.8139  0.0505  -2.5257   0.0000   0.0000   0.0000   1.8839
  -5.300   0.1086   0.01634   0.00903  -0.1554  0.8121  0.0516  -2.4713   0.0000   0.0000   0.0000   1.7203
  -5.200   0.1195   0.01610   0.00884  -0.1555  0.8106  0.0527  -2.4101   0.0000   0.0000   0.0000   1.5859
  -5.100   0.1309   0.01593   0.00867  -0.1556  0.8093  0.0542  -2.3553   0.0000   0.0000   0.0000   1.4696
  -5.000   0.1426   0.01577   0.00844  -0.1557  0.8082  0.0559  -2.3049   0.0000   0.0000   0.0000   1.3696
  -4.900   0.1539   0.01554   0.00819  -0.1558  0.8069  0.0575  -2.2565   0.0000   0.0000   0.0000   1.2873
  -4.800   0.1642   0.01537   0.00808  -0.1557  0.8048  0.0591  -2.2054   0.0000   0.0000   0.0000   1.2219
  -4.700   0.1751   0.01521   0.00792  -0.1558  0.8031  0.0612  -2.1565   0.0000   0.0000   0.0000   1.1607
  -4.600   0.1864   0.01501   0.00769  -0.1558  0.8016  0.0635  -2.1091   0.0000   0.0000   0.0000   1.1057
  -4.500   0.1978   0.01482   0.00753  -0.1560  0.8003  0.0661  -2.0563   0.0000   0.0000   0.0000   1.0564
  -4.400   0.2096   0.01463   0.00731  -0.1561  0.7991  0.0695  -2.0072   0.0000   0.0000   0.0000   1.0114
  -4.300   0.2214   0.01445   0.00714  -0.1563  0.7980  0.0731  -1.9533   0.0000   0.0000   0.0000   0.9712
  -4.200   0.2318   0.01431   0.00703  -0.1562  0.7960  0.0771  -1.9044   0.0000   0.0000   0.0000   0.9382
  -4.100   0.2428   0.01422   0.00693  -0.1563  0.7941  0.0820  -1.8540   0.0000   0.0000   0.0000   0.9069
  -4.000   0.2540   0.01407   0.00682  -0.1564  0.7924  0.0870  -1.8063   0.0000   0.0000   0.0000   0.8779
  -3.900   0.2656   0.01393   0.00670  -0.1565  0.7910  0.0928  -1.7586   0.0000   0.0000   0.0000   0.8507
  -3.800   0.2774   0.01379   0.00657  -0.1567  0.7898  0.0994  -1.7103   0.0000   0.0000   0.0000   0.8254
  -3.700   0.2894   0.01365   0.00643  -0.1569  0.7887  0.1067  -1.6613   0.0000   0.0000   0.0000   0.8019
  -3.600   0.3002   0.01356   0.00637  -0.1569  0.7868  0.1145  -1.6144   0.0000   0.0000   0.0000   0.7818
  -3.500   0.3110   0.01347   0.00632  -0.1569  0.7847  0.1231  -1.5671   0.0000   0.0000   0.0000   0.7631
  -3.400   0.3224   0.01337   0.00625  -0.1570  0.7830  0.1330  -1.5186   0.0000   0.0000   0.0000   0.7451
  -3.300   0.3340   0.01326   0.00616  -0.1571  0.7815  0.1443  -1.4694   0.0000   0.0000   0.0000   0.7280
  -3.200   0.3458   0.01315   0.00608  -0.1573  0.7802  0.1562  -1.4194   0.0000   0.0000   0.0000   0.7118
  -3.100   0.3578   0.01304   0.00600  -0.1575  0.7790  0.1693  -1.3690   0.0000   0.0000   0.0000   0.6966
  -3.000   0.3688   0.01299   0.00598  -0.1575  0.7771  0.1828  -1.3215   0.0000   0.0000   0.0000   0.6832
  -2.900   0.3796   0.01292   0.00597  -0.1576  0.7750  0.1958  -1.2745   0.0000   0.0000   0.0000   0.6707
  -2.800   0.3909   0.01284   0.00593  -0.1576  0.7733  0.2094  -1.2266   0.0000   0.0000   0.0000   0.6586
  -2.700   0.4025   0.01276   0.00588  -0.1578  0.7718  0.2234  -1.1782   0.0000   0.0000   0.0000   0.6468
  -2.600   0.4144   0.01268   0.00582  -0.1579  0.7705  0.2372  -1.1297   0.0000   0.0000   0.0000   0.6356
  -2.500   0.4265   0.01260   0.00576  -0.1581  0.7693  0.2517  -1.0812   0.0000   0.0000   0.0000   0.6249
  -2.400   0.4376   0.01255   0.00575  -0.1582  0.7676  0.2660  -1.0389   0.0000   0.0000   0.0000   0.6153
  -2.300   0.4483   0.01251   0.00577  -0.1582  0.7654  0.2804  -0.9978   0.0000   0.0000   0.0000   0.6063
  -2.200   0.4596   0.01246   0.00575  -0.1582  0.7636  0.2957  -0.9558   0.0000   0.0000   0.0000   0.5975
  -2.100   0.4712   0.01239   0.00572  -0.1584  0.7621  0.3121  -0.9134   0.0000   0.0000   0.0000   0.5890
  -2.000   0.4831   0.01232   0.00568  -0.1585  0.7608  0.3290  -0.8709   0.0000   0.0000   0.0000   0.5808
  -1.900   0.4951   0.01225   0.00564  -0.1587  0.7596  0.3474  -0.8284   0.0000   0.0000   0.0000   0.5729
  -1.800   0.5064   0.01220   0.00564  -0.1588  0.7579  0.3658  -0.8254   0.0000   0.0000   0.0000   0.5656
  -1.700   0.5169   0.01217   0.00568  -0.1587  0.7556  0.3835  -0.8325   0.0000   0.0000   0.0000   0.5589
  -1.600   0.5282   0.01212   0.00567  -0.1588  0.7537  0.4023  -0.8402   0.0000   0.0000   0.0000   0.5522
  -1.500   0.5398   0.01205   0.00565  -0.1589  0.7520  0.4213  -0.8482   0.0000   0.0000   0.0000   0.5457
  -1.400   0.5516   0.01198   0.00561  -0.1590  0.7506  0.4409  -0.8563   0.0000   0.0000   0.0000   0.5393
  -1.300   0.5637   0.01190   0.00556  -0.1591  0.7493  0.4606  -0.8647   0.0000   0.0000   0.0000   0.5332
  -1.200   0.5743   0.01188   0.00560  -0.1591  0.7470  0.4812  -0.8720   0.0000   0.0000   0.0000   0.5277
  -1.100   0.5850   0.01183   0.00563  -0.1590  0.7447  0.5028  -0.8793   0.0000   0.0000   0.0000   0.5223
  -1.000   0.5962   0.01177   0.00563  -0.1590  0.7428  0.5259  -0.8879   0.0000   0.0000   0.0000   0.5170
  -0.900   0.6077   0.01170   0.00562  -0.1590  0.7412  0.5510  -0.8971   0.0000   0.0000   0.0000   0.5118
  -0.800   0.6194   0.01162   0.00560  -0.1591  0.7398  0.5767  -0.9064   0.0000   0.0000   0.0000   0.5067
  -0.700   0.6309   0.01156   0.00560  -0.1590  0.7385  0.6024  -0.9156   0.0000   0.0000   0.0000   0.5019
  -0.600   0.6406   0.01156   0.00569  -0.1588  0.7359  0.6266  -0.9235   0.0000   0.0000   0.0000   0.4975
  -0.500   0.6511   0.01153   0.00572  -0.1586  0.7338  0.6501  -0.9320   0.0000   0.0000   0.0000   0.4930
  -0.400   0.6619   0.01149   0.00574  -0.1584  0.7321  0.6731  -0.9407   0.0000   0.0000   0.0000   0.4886
  -0.300   0.6730   0.01146   0.00574  -0.1583  0.7305  0.6950  -0.9499   0.0000   0.0000   0.0000   0.4843
  -0.200   0.6841   0.01142   0.00572  -0.1581  0.7292  0.7163  -0.9592   0.0000   0.0000   0.0000   0.4801
  -0.100   0.6941   0.01143   0.00577  -0.1578  0.7271  0.7364  -0.9677   0.0000   0.0000   0.0000   0.4761
   0.000   0.7037   0.01143   0.00583  -0.1574  0.7247  0.7545  -0.9759   0.0000   0.0000   0.0000   0.4723
   0.100   0.7138   0.01142   0.00585  -0.1571  0.7227  0.7719  -0.9845   0.0000   0.0000   0.0000   0.4685
   0.200   0.7242   0.01140   0.00584  -0.1568  0.7209  0.7881  -0.9934   0.0000   0.0000   0.0000   0.4648
   0.300   0.7348   0.01137   0.00582  -0.1565  0.7194  0.8032  -1.0025   0.0000   0.0000   0.0000   0.4611
   0.400   0.7452   0.01135   0.00580  -0.1562  0.7179  0.8173  -1.0114   0.0000   0.0000   0.0000   0.4576
   0.500   0.7536   0.01137   0.00586  -0.1556  0.7150  0.8305  -1.0189   0.0000   0.0000   0.0000   0.4543
   0.600   0.7628   0.01135   0.00587  -0.1551  0.7127  0.8440  -1.0270   0.0000   0.0000   0.0000   0.4509
   0.700   0.7723   0.01131   0.00584  -0.1546  0.7108  0.8577  -1.0355   0.0000   0.0000   0.0000   0.4476
   0.800   0.7816   0.01126   0.00578  -0.1540  0.7091  0.8719  -1.0442   0.0000   0.0000   0.0000   0.4443
   0.900   0.7902   0.01122   0.00575  -0.1532  0.7073  0.8874  -1.0534   0.0000   0.0000   0.0000   0.4411
   1.000   0.7966   0.01120   0.00578  -0.1521  0.7044  0.9042  -1.0611   0.0000   0.0000   0.0000   0.4380
   1.100   0.8040   0.01113   0.00574  -0.1512  0.7021  0.9239  -1.0696   0.0000   0.0000   0.0000   0.4349
   1.200   0.8145   0.01105   0.00565  -0.1508  0.7001  0.9495  -1.0799   0.0000   0.0000   0.0000   0.4319
   1.300   0.8305   0.01097   0.00554  -0.1518  0.6985  1.0000  -1.0938   0.0000   0.0000   0.0000   0.4293
   1.400   0.8427   0.01101   0.00555  -0.1521  0.6964  1.0000  -1.1051   0.0000   0.0000   0.0000   0.4269
   1.500   0.8539   0.01106   0.00559  -0.1522  0.6935  1.0000  -1.1158   0.0000   0.0000   0.0000   0.4246
   1.600   0.8659   0.01108   0.00560  -0.1524  0.6912  1.0000  -1.1274   0.0000   0.0000   0.0000   0.4222
   1.700   0.8783   0.01110   0.00558  -0.1527  0.6893  1.0000  -1.1393   0.0000   0.0000   0.0000   0.4199
   1.800   0.8911   0.01111   0.00554  -0.1530  0.6876  1.0000  -1.1515   0.0000   0.0000   0.0000   0.4177
   1.900   0.9022   0.01116   0.00558  -0.1531  0.6851  1.0000  -1.1625   0.0000   0.0000   0.0000   0.4155
   2.000   0.9133   0.01120   0.00562  -0.1532  0.6822  1.0000  -1.1735   0.0000   0.0000   0.0000   0.4133
   2.100   0.9251   0.01121   0.00561  -0.1533  0.6798  1.0000  -1.1853   0.0000   0.0000   0.0000   0.4112
   2.200   0.9374   0.01121   0.00557  -0.1535  0.6778  1.0000  -1.1982   0.0000   0.0000   0.0000   0.4092
   2.300   0.9491   0.01124   0.00556  -0.1537  0.6754  1.0000  -1.2117   0.0000   0.0000   0.0000   0.4071
   2.400   0.9596   0.01127   0.00561  -0.1536  0.6721  1.0000  -1.2244   0.0000   0.0000   0.0000   0.4052
   2.500   0.9710   0.01129   0.00561  -0.1537  0.6694  1.0000  -1.2381   0.0000   0.0000   0.0000   0.4032
   2.600   0.9831   0.01129   0.00557  -0.1538  0.6672  1.0000  -1.2523   0.0000   0.0000   0.0000   0.4013
   2.700   0.9944   0.01131   0.00558  -0.1539  0.6645  1.0000  -1.2658   0.0000   0.0000   0.0000   0.3994
   2.800   1.0049   0.01135   0.00562  -0.1538  0.6612  1.0000  -1.2786   0.0000   0.0000   0.0000   0.3976
   2.900   1.0163   0.01137   0.00562  -0.1539  0.6586  1.0000  -1.2923   0.0000   0.0000   0.0000   0.3958
   3.000   1.0282   0.01138   0.00560  -0.1540  0.6564  1.0000  -1.3065   0.0000   0.0000   0.0000   0.3940
   3.100   1.0392   0.01142   0.00563  -0.1540  0.6537  1.0000  -1.3199   0.0000   0.0000   0.0000   0.3923
   3.200   1.0497   0.01146   0.00569  -0.1539  0.6505  1.0000  -1.3328   0.0000   0.0000   0.0000   0.3906
   3.300   1.0611   0.01148   0.00569  -0.1540  0.6478  1.0000  -1.3466   0.0000   0.0000   0.0000   0.3890
   3.400   1.0729   0.01150   0.00567  -0.1541  0.6456  1.0000  -1.3609   0.0000   0.0000   0.0000   0.3873
   3.500   1.0834   0.01155   0.00573  -0.1540  0.6424  1.0000  -1.3739   0.0000   0.0000   0.0000   0.3857
   3.600   1.0940   0.01159   0.00577  -0.1540  0.6390  1.0000  -1.3871   0.0000   0.0000   0.0000   0.3842
   3.700   1.1053   0.01161   0.00576  -0.1540  0.6362  1.0000  -1.4010   0.0000   0.0000   0.0000   0.3826
   3.800   1.1168   0.01164   0.00576  -0.1541  0.6336  1.0000  -1.4156   0.0000   0.0000   0.0000   0.3811
   3.900   1.1266   0.01169   0.00583  -0.1539  0.6296  1.0000  -1.4286   0.0000   0.0000   0.0000   0.3796
   4.000   1.1375   0.01172   0.00586  -0.1538  0.6263  1.0000  -1.4435   0.0000   0.0000   0.0000   0.3781
   4.100   1.1491   0.01174   0.00584  -0.1539  0.6236  1.0000  -1.4595   0.0000   0.0000   0.0000   0.3766
   4.200   1.1588   0.01180   0.00592  -0.1536  0.6194  1.0000  -1.4738   0.0000   0.0000   0.0000   0.3752
   4.300   1.1694   0.01184   0.00595  -0.1536  0.6159  1.0000  -1.4894   0.0000   0.0000   0.0000   0.3738
   4.400   1.1807   0.01188   0.00595  -0.1536  0.6130  1.0000  -1.5059   0.0000   0.0000   0.0000   0.3724
   4.500   1.1905   0.01194   0.00604  -0.1534  0.6090  1.0000  -1.5209   0.0000   0.0000   0.0000   0.3710
   4.600   1.2010   0.01199   0.00608  -0.1533  0.6054  1.0000  -1.5365   0.0000   0.0000   0.0000   0.3696
   4.700   1.2121   0.01204   0.00610  -0.1533  0.6024  1.0000  -1.5530   0.0000   0.0000   0.0000   0.3683
   4.800   1.2220   0.01211   0.00619  -0.1531  0.5985  1.0000  -1.5692   0.0000   0.0000   0.0000   0.3670
   4.900   1.2322   0.01217   0.00625  -0.1530  0.5947  1.0000  -1.5858   0.0000   0.0000   0.0000   0.3657
   5.000   1.2432   0.01223   0.00627  -0.1529  0.5916  1.0000  -1.6032   0.0000   0.0000   0.0000   0.3645
   5.100   1.2530   0.01230   0.00636  -0.1527  0.5875  1.0000  -1.6194   0.0000   0.0000   0.0000   0.3632
   5.200   1.2631   0.01237   0.00642  -0.1526  0.5836  1.0000  -1.6360   0.0000   0.0000   0.0000   0.3619
   5.300   1.2739   0.01243   0.00645  -0.1525  0.5804  1.0000  -1.6543   0.0000   0.0000   0.0000   0.3607
   5.400   1.2833   0.01251   0.00656  -0.1523  0.5758  1.0000  -1.6725   0.0000   0.0000   0.0000   0.3595
   5.500   1.2933   0.01259   0.00662  -0.1521  0.5717  1.0000  -1.6920   0.0000   0.0000   0.0000   0.3583
   5.600   1.3034   0.01267   0.00668  -0.1519  0.5677  1.0000  -1.7119   0.0000   0.0000   0.0000   0.3571
   5.700   1.3128   0.01275   0.00678  -0.1516  0.5629  1.0000  -1.7310   0.0000   0.0000   0.0000   0.3559
   5.800   1.3229   0.01283   0.00682  -0.1515  0.5589  1.0000  -1.7511   0.0000   0.0000   0.0000   0.3547
   5.900   1.3321   0.01292   0.00693  -0.1512  0.5540  1.0000  -1.7701   0.0000   0.0000   0.0000   0.3536
   6.000   1.3418   0.01301   0.00701  -0.1509  0.5496  1.0000  -1.7897   0.0000   0.0000   0.0000   0.3524
   6.100   1.3513   0.01311   0.00709  -0.1507  0.5453  1.0000  -1.8093   0.0000   0.0000   0.0000   0.3513
   6.200   1.3606   0.01321   0.00720  -0.1504  0.5406  1.0000  -1.8309   0.0000   0.0000   0.0000   0.3502
   6.300   1.3704   0.01332   0.00728  -0.1502  0.5366  1.0000  -1.8557   0.0000   0.0000   0.0000   0.3491
   6.400   1.3792   0.01343   0.00741  -0.1498  0.5315  1.0000  -1.8793   0.0000   0.0000   0.0000   0.3480
   6.500   1.3884   0.01354   0.00750  -0.1495  0.5270  1.0000  -1.9036   0.0000   0.0000   0.0000   0.3469
   6.600   1.3974   0.01365   0.00762  -0.1492  0.5222  1.0000  -1.9276   0.0000   0.0000   0.0000   0.3458
   6.700   1.4062   0.01377   0.00773  -0.1488  0.5174  1.0000  -1.9516   0.0000   0.0000   0.0000   0.3447
   6.800   1.4151   0.01390   0.00784  -0.1484  0.5127  1.0000  -1.9757   0.0000   0.0000   0.0000   0.3436
   6.900   1.4235   0.01403   0.00797  -0.1480  0.5073  1.0000  -1.9992   0.0000   0.0000   0.0000   0.3425
   7.000   1.4322   0.01417   0.00808  -0.1476  0.5027  1.0000  -2.0233   0.0000   0.0000   0.0000   0.3415
   7.100   1.4403   0.01430   0.00823  -0.1471  0.4970  1.0000  -2.0465   0.0000   0.0000   0.0000   0.3404
   7.200   1.4487   0.01445   0.00835  -0.1467  0.4923  1.0000  -2.0703   0.0000   0.0000   0.0000   0.3394
   7.300   1.4565   0.01459   0.00851  -0.1462  0.4866  1.0000  -2.0934   0.0000   0.0000   0.0000   0.3383
   7.400   1.4646   0.01475   0.00863  -0.1457  0.4818  1.0000  -2.1169   0.0000   0.0000   0.0000   0.3373
   7.500   1.4722   0.01490   0.00880  -0.1452  0.4763  1.0000  -2.1438   0.0000   0.0000   0.0000   0.3362
   7.600   1.4799   0.01507   0.00894  -0.1446  0.4714  1.0000  -2.1737   0.0000   0.0000   0.0000   0.3352
   7.700   1.4873   0.01523   0.00911  -0.1440  0.4660  1.0000  -2.2032   0.0000   0.0000   0.0000   0.3341
   7.800   1.4946   0.01540   0.00927  -0.1434  0.4609  1.0000  -2.2326   0.0000   0.0000   0.0000   0.3331
   7.900   1.5016   0.01557   0.00945  -0.1428  0.4554  1.0000  -2.2616   0.0000   0.0000   0.0000   0.3321
   8.000   1.5083   0.01577   0.00962  -0.1421  0.4501  1.0000  -2.2903   0.0000   0.0000   0.0000   0.3310
   8.100   1.5147   0.01595   0.00981  -0.1414  0.4445  1.0000  -2.3187   0.0000   0.0000   0.0000   0.3300
   8.200   1.5204   0.01615   0.00999  -0.1405  0.4391  1.0000  -2.3458   0.0000   0.0000   0.0000   0.3289
   8.300   1.5260   0.01634   0.01019  -0.1396  0.4336  1.0000  -2.3729   0.0000   0.0000   0.0000   0.3278
   8.400   1.5314   0.01657   0.01039  -0.1387  0.4283  1.0000  -2.3998   0.0000   0.0000   0.0000   0.3267
   8.500   1.5369   0.01678   0.01061  -0.1378  0.4227  1.0000  -2.4270   0.0000   0.0000   0.0000   0.3257
   8.600   1.5420   0.01702   0.01083  -0.1369  0.4175  1.0000  -2.4536   0.0000   0.0000   0.0000   0.3246
   8.700   1.5474   0.01725   0.01106  -0.1361  0.4120  1.0000  -2.4805   0.0000   0.0000   0.0000   0.3236
   8.800   1.5522   0.01751   0.01131  -0.1351  0.4068  1.0000  -2.5068   0.0000   0.0000   0.0000   0.3225
   8.900   1.5573   0.01776   0.01157  -0.1343  0.4014  1.0000  -2.5335   0.0000   0.0000   0.0000   0.3215
   9.000   1.5619   0.01804   0.01184  -0.1333  0.3962  1.0000  -2.5594   0.0000   0.0000   0.0000   0.3205
   9.100   1.5668   0.01831   0.01211  -0.1324  0.3909  1.0000  -2.5870   0.0000   0.0000   0.0000   0.3195
   9.200   1.5711   0.01861   0.01240  -0.1315  0.3858  1.0000  -2.6200   0.0000   0.0000   0.0000   0.3185
   9.300   1.5758   0.01891   0.01270  -0.1306  0.3806  1.0000  -2.6568   0.0000   0.0000   0.0000   0.3175
   9.400   1.5800   0.01923   0.01301  -0.1297  0.3756  1.0000  -2.6937   0.0000   0.0000   0.0000   0.3165
   9.500   1.5844   0.01956   0.01334  -0.1288  0.3706  1.0000  -2.7311   0.0000   0.0000   0.0000   0.3156
   9.600   1.5885   0.01990   0.01368  -0.1279  0.3654  1.0000  -2.7700   0.0000   0.0000   0.0000   0.3146
   9.700   1.5924   0.02026   0.01403  -0.1270  0.3603  1.0000  -2.8088   0.0000   0.0000   0.0000   0.3137
   9.800   1.5962   0.02063   0.01440  -0.1261  0.3548  1.0000  -2.8472   0.0000   0.0000   0.0000   0.3127
   9.900   1.5999   0.02102   0.01478  -0.1253  0.3495  1.0000  -2.8876   0.0000   0.0000   0.0000   0.3118
  10.000   1.6032   0.02143   0.01519  -0.1243  0.3440  1.0000  -2.9360   0.0000   0.0000   0.0000   0.3109
  10.100   1.6067   0.02184   0.01561  -0.1235  0.3386  1.0000  -2.9851   0.0000   0.0000   0.0000   0.3100
  10.200   1.6097   0.02229   0.01604  -0.1226  0.3332  1.0000  -3.0329   0.0000   0.0000   0.0000   0.3091
  10.300   1.6132   0.02272   0.01648  -0.1217  0.3278  1.0000  -3.0825   0.0000   0.0000   0.0000   0.3082
  10.400   1.6160   0.02321   0.01694  -0.1208  0.3227  1.0000  -3.1301   0.0000   0.0000   0.0000   0.3074
  10.500   1.6195   0.02366   0.01740  -0.1200  0.3175  1.0000  -3.1801   0.0000   0.0000   0.0000   0.3065
  10.600   1.6223   0.02416   0.01789  -0.1192  0.3127  1.0000  -3.2279   0.0000   0.0000   0.0000   0.3057
  10.700   1.6257   0.02463   0.01837  -0.1184  0.3076  1.0000  -3.2780   0.0000   0.0000   0.0000   0.3049
  10.800   1.6283   0.02516   0.01889  -0.1175  0.3028  1.0000  -3.3260   0.0000   0.0000   0.0000   0.3040
  10.900   1.6315   0.02566   0.01940  -0.1168  0.2979  1.0000  -3.3758   0.0000   0.0000   0.0000   0.3032
  11.000   1.6341   0.02620   0.01993  -0.1160  0.2930  1.0000  -3.4239   0.0000   0.0000   0.0000   0.3024
  11.100   1.6371   0.02673   0.02048  -0.1152  0.2882  1.0000  -3.4734   0.0000   0.0000   0.0000   0.3016
  11.200   1.6396   0.02729   0.02104  -0.1144  0.2834  1.0000  -3.5217   0.0000   0.0000   0.0000   0.3008
  11.300   1.6423   0.02785   0.02160  -0.1137  0.2787  1.0000  -3.5708   0.0000   0.0000   0.0000   0.3001
  11.400   1.6448   0.02843   0.02218  -0.1129  0.2739  1.0000  -3.6190   0.0000   0.0000   0.0000   0.2993
  11.500   1.6471   0.02903   0.02278  -0.1121  0.2694  1.0000  -3.6671   0.0000   0.0000   0.0000   0.2985
  11.600   1.6494   0.02964   0.02339  -0.1114  0.2648  1.0000  -3.7154   0.0000   0.0000   0.0000   0.2978
  11.700   1.6512   0.03029   0.02403  -0.1106  0.2604  1.0000  -3.7620   0.0000   0.0000   0.0000   0.2970
  11.800   1.6534   0.03091   0.02467  -0.1099  0.2555  1.0000  -3.8100   0.0000   0.0000   0.0000   0.2963
  11.900   1.6547   0.03161   0.02535  -0.1091  0.2511  1.0000  -3.8550   0.0000   0.0000   0.0000   0.2956
  12.000   1.6566   0.03227   0.02603  -0.1083  0.2460  1.0000  -3.9023   0.0000   0.0000   0.0000   0.2949
  12.100   1.6577   0.03300   0.02674  -0.1076  0.2414  1.0000  -3.9468   0.0000   0.0000   0.0000   0.2941
  12.200   1.6592   0.03371   0.02746  -0.1069  0.2363  1.0000  -3.9929   0.0000   0.0000   0.0000   0.2934
  12.300   1.6603   0.03445   0.02821  -0.1061  0.2316  1.0000  -4.0377   0.0000   0.0000   0.0000   0.2928
  12.400   1.6613   0.03521   0.02897  -0.1054  0.2266  1.0000  -4.0825   0.0000   0.0000   0.0000   0.2921
  12.500   1.6625   0.03596   0.02972  -0.1047  0.2218  1.0000  -4.1279   0.0000   0.0000   0.0000   0.2914
  12.600   1.6630   0.03678   0.03053  -0.1040  0.2171  1.0000  -4.1708   0.0000   0.0000   0.0000   0.2907
  12.700   1.6642   0.03755   0.03131  -0.1033  0.2124  1.0000  -4.2164   0.0000   0.0000   0.0000   0.2901
  12.800   1.6644   0.03841   0.03216  -0.1026  0.2079  1.0000  -4.2580   0.0000   0.0000   0.0000   0.2894
  12.900   1.6655   0.03920   0.03296  -0.1020  0.2033  1.0000  -4.3037   0.0000   0.0000   0.0000   0.2888
  13.000   1.6655   0.04010   0.03385  -0.1013  0.1990  1.0000  -4.3447   0.0000   0.0000   0.0000   0.2882
  13.100   1.6666   0.04092   0.03469  -0.1007  0.1944  1.0000  -4.3903   0.0000   0.0000   0.0000   0.2876
  13.200   1.6664   0.04187   0.03562  -0.1000  0.1903  1.0000  -4.4306   0.0000   0.0000   0.0000   0.2870
  13.300   1.6674   0.04271   0.03649  -0.0995  0.1858  1.0000  -4.4761   0.0000   0.0000   0.0000   0.2864
  13.400   1.6670   0.04370   0.03746  -0.0988  0.1818  1.0000  -4.5157   0.0000   0.0000   0.0000   0.2858
  13.500   1.6680   0.04457   0.03835  -0.0983  0.1772  1.0000  -4.5611   0.0000   0.0000   0.0000   0.2852
  13.600   1.6673   0.04560   0.03937  -0.0977  0.1733  1.0000  -4.5999   0.0000   0.0000   0.0000   0.2846
  13.700   1.6682   0.04650   0.04029  -0.0972  0.1688  1.0000  -4.6450   0.0000   0.0000   0.0000   0.2841
  13.800   1.6672   0.04758   0.04136  -0.0966  0.1649  1.0000  -4.6825   0.0000   0.0000   0.0000   0.2836
  13.900   1.6679   0.04851   0.04231  -0.0961  0.1605  1.0000  -4.7270   0.0000   0.0000   0.0000   0.2830
  14.000   1.6666   0.04965   0.04344  -0.0956  0.1569  1.0000  -4.7631   0.0000   0.0000   0.0000   0.2825
  14.100   1.6671   0.05062   0.04443  -0.0951  0.1527  1.0000  -4.8070   0.0000   0.0000   0.0000   0.2820
  14.200   1.6657   0.05180   0.04560  -0.0946  0.1493  1.0000  -4.8425   0.0000   0.0000   0.0000   0.2815
  14.300   1.6660   0.05282   0.04663  -0.0942  0.1453  1.0000  -4.8854   0.0000   0.0000   0.0000   0.2810
  14.400   1.6645   0.05402   0.04783  -0.0937  0.1420  1.0000  -4.9207   0.0000   0.0000   0.0000   0.2806
  14.500   1.6646   0.05508   0.04891  -0.0933  0.1383  1.0000  -4.9627   0.0000   0.0000   0.0000   0.2801
  14.600   1.6634   0.05628   0.05011  -0.0929  0.1349  1.0000  -4.9991   0.0000   0.0000   0.0000   0.2797
  14.700   1.6630   0.05740   0.05125  -0.0925  0.1316  1.0000  -5.0390   0.0000   0.0000   0.0000   0.2792
  14.800   1.6621   0.05860   0.05245  -0.0921  0.1283  1.0000  -5.0764   0.0000   0.0000   0.0000   0.2788
  14.900   1.6608   0.05983   0.05369  -0.0917  0.1253  1.0000  -5.1124   0.0000   0.0000   0.0000   0.2784
  15.000   1.6603   0.06099   0.05487  -0.0914  0.1220  1.0000  -5.1517   0.0000   0.0000   0.0000   0.2780
  15.100   1.6578   0.06238   0.05624  -0.0910  0.1194  1.0000  -5.1823   0.0000   0.0000   0.0000   0.2776
  15.200   1.6580   0.06348   0.05739  -0.0908  0.1161  1.0000  -5.2249   0.0000   0.0000   0.0000   0.2772
  15.300   1.6561   0.06484   0.05875  -0.0905  0.1134  1.0000  -5.2578   0.0000   0.0000   0.0000   0.2768
  15.400   1.6552   0.06609   0.06002  -0.0902  0.1106  1.0000  -5.2950   0.0000   0.0000   0.0000   0.2765
  15.500   1.6539   0.06740   0.06134  -0.0899  0.1078  1.0000  -5.3305   0.0000   0.0000   0.0000   0.2761
  15.600   1.6511   0.06889   0.06283  -0.0897  0.1057  1.0000  -5.3591   0.0000   0.0000   0.0000   0.2758
  15.700   1.6510   0.07008   0.06406  -0.0895  0.1027  1.0000  -5.4000   0.0000   0.0000   0.0000   0.2755
  15.800   1.6489   0.07151   0.06549  -0.0893  0.1003  1.0000  -5.4317   0.0000   0.0000   0.0000   0.2752
  15.900   1.6471   0.07292   0.06692  -0.0891  0.0981  1.0000  -5.4643   0.0000   0.0000   0.0000   0.2749
  16.000   1.6461   0.07423   0.06826  -0.0890  0.0954  1.0000  -5.5010   0.0000   0.0000   0.0000   0.2746
  16.100   1.6433   0.07578   0.06980  -0.0888  0.0934  1.0000  -5.5290   0.0000   0.0000   0.0000   0.2744
  16.200   1.6422   0.07712   0.07118  -0.0887  0.0910  1.0000  -5.5645   0.0000   0.0000   0.0000   0.2741
  16.300   1.6404   0.07855   0.07263  -0.0886  0.0887  1.0000  -5.5973   0.0000   0.0000   0.0000   0.2738
  16.400   1.6373   0.08016   0.07424  -0.0885  0.0869  1.0000  -5.6231   0.0000   0.0000   0.0000   0.2737
  16.500   1.6364   0.08151   0.07563  -0.0884  0.0846  1.0000  -5.6595   0.0000   0.0000   0.0000   0.2734
  16.600   1.6344   0.08300   0.07715  -0.0884  0.0825  1.0000  -5.6906   0.0000   0.0000   0.0000   0.2732
  16.700   1.6309   0.08470   0.07884  -0.0884  0.0809  1.0000  -5.7144   0.0000   0.0000   0.0000   0.2731
  16.800   1.6300   0.08607   0.08026  -0.0884  0.0787  1.0000  -5.7502   0.0000   0.0000   0.0000   0.2728
  16.900   1.6277   0.08764   0.08186  -0.0884  0.0768  1.0000  -5.7793   0.0000   0.0000   0.0000   0.2727
  17.000   1.6243   0.08936   0.08358  -0.0884  0.0753  1.0000  -5.8025   0.0000   0.0000   0.0000   0.2726
  17.100   1.6226   0.09086   0.08512  -0.0885  0.0735  1.0000  -5.8338   0.0000   0.0000   0.0000   0.2724
  17.200   1.6207   0.09240   0.08669  -0.0886  0.0716  1.0000  -5.8642   0.0000   0.0000   0.0000   0.2723
  17.300   1.6174   0.09413   0.08844  -0.0887  0.0702  1.0000  -5.8872   0.0000   0.0000   0.0000   0.2723
  17.400   1.6144   0.09584   0.09015  -0.0888  0.0688  1.0000  -5.9113   0.0000   0.0000   0.0000   0.2722
  17.500   1.6129   0.09732   0.09169  -0.0889  0.0669  1.0000  -5.9429   0.0000   0.0000   0.0000   0.2721
  17.600   1.6101   0.09900   0.09339  -0.0891  0.0655  1.0000  -5.9675   0.0000   0.0000   0.0000   0.2720
  17.700   1.6061   0.10084   0.09524  -0.0893  0.0643  1.0000  -5.9862   0.0000   0.0000   0.0000   0.2720
  17.800   1.6040   0.10244   0.09688  -0.0895  0.0628  1.0000  -6.0134   0.0000   0.0000   0.0000   0.2720
  17.900   1.6021   0.10403   0.09851  -0.0897  0.0612  1.0000  -6.0414   0.0000   0.0000   0.0000   0.2719
  18.000   1.5989   0.10579   0.10029  -0.0899  0.0600  1.0000  -6.0633   0.0000   0.0000   0.0000   0.2719
  18.100   1.5948   0.10769   0.10219  -0.0903  0.0590  1.0000  -6.0798   0.0000   0.0000   0.0000   0.2720
  18.200   1.5931   0.10929   0.10383  -0.0905  0.0575  1.0000  -6.1072   0.0000   0.0000   0.0000   0.2720
  18.300   1.5909   0.11094   0.10553  -0.0908  0.0561  1.0000  -6.1328   0.0000   0.0000   0.0000   0.2720
  18.400   1.5877   0.11275   0.10735  -0.0912  0.0550  1.0000  -6.1529   0.0000   0.0000   0.0000   0.2721
  18.500   1.5837   0.11467   0.10928  -0.0916  0.0541  1.0000  -6.1685   0.0000   0.0000   0.0000   0.2723
  18.600   1.5816   0.11634   0.11099  -0.0919  0.0528  1.0000  -6.1925   0.0000   0.0000   0.0000   0.2723
  18.700   1.5797   0.11799   0.11269  -0.0923  0.0514  1.0000  -6.2173   0.0000   0.0000   0.0000   0.2724
  18.800   1.5768   0.11979   0.11451  -0.0928  0.0504  1.0000  -6.2381   0.0000   0.0000   0.0000   0.2725
  18.900   1.5732   0.12169   0.11642  -0.0933  0.0495  1.0000  -6.2604   0.0000   0.0000   0.0000   0.2727
  19.000   1.5703   0.12350   0.11825  -0.0938  0.0485  1.0000  -6.2856   0.0000   0.0000   0.0000   0.2729
  19.100   1.5686   0.12513   0.11994  -0.0942  0.0473  1.0000  -6.3177   0.0000   0.0000   0.0000   0.2730
  19.200   1.5661   0.12689   0.12173  -0.0947  0.0463  1.0000  -6.3452   0.0000   0.0000   0.0000   0.2731
  19.300   1.5631   0.12871   0.12357  -0.0953  0.0454  1.0000  -6.3698   0.0000   0.0000   0.0000   0.2734
  19.400   1.5595   0.13062   0.12547  -0.0959  0.0447  1.0000  -6.3900   0.0000   0.0000   0.0000   0.2736
  19.500   1.5574   0.13233   0.12722  -0.0964  0.0438  1.0000  -6.4179   0.0000   0.0000   0.0000   0.2738
  19.600   1.5554   0.13402   0.12896  -0.0970  0.0428  1.0000  -6.4467   0.0000   0.0000   0.0000   0.2740
  19.700   1.5532   0.13576   0.13073  -0.0976  0.0419  1.0000  -6.4742   0.0000   0.0000   0.0000   0.2742
  19.800   1.5507   0.13756   0.13255  -0.0982  0.0411  1.0000  -6.4996   0.0000   0.0000   0.0000   0.2745
  19.900   1.5478   0.13939   0.13437  -0.0989  0.0405  1.0000  -6.5226   0.0000   0.0000   0.0000   0.2748
  20.000   1.5457   0.14110   0.13611  -0.0995  0.0397  1.0000  -6.5494   0.0000   0.0000   0.0000   0.2750


