xflr5 v6.57

 Calculated polar for: rev_root_140

 1 1 Reynolds number fixed          Mach number fixed         

 xtrf =   1.000 (top)        1.000 (bottom)
 Mach =   0.000     Re =     0.440 e 6     Ncrit =   9.000

  alpha     CL        CD       CDp       Cm    Top Xtr Bot Xtr   Cpmin    Chinge    XCp    
 ------- -------- --------- --------- -------- ------- ------- -------- --------- ---------
  -9.700  -0.2738   0.05114   0.04808  -0.1155  0.8569  0.0270  -4.3371   0.0000   0.0000   0.0000  -0.2023
  -9.600  -0.2874   0.04452   0.04134  -0.1251  0.8532  0.0266  -4.5629   0.0000   0.0000   0.0000  -0.2138
  -9.500  -0.2975   0.03746   0.03395  -0.1383  0.8486  0.0263  -4.8103   0.0000   0.0000   0.0000  -0.2420
  -9.400  -0.3013   0.03373   0.02989  -0.1428  0.8457  0.0263  -4.9328   0.0000   0.0000   0.0000  -0.2504
  -9.300  -0.2999   0.03114   0.02699  -0.1452  0.8438  0.0264  -4.9911   0.0000   0.0000   0.0000  -0.2608
  -9.200  -0.2957   0.02919   0.02480  -0.1468  0.8413  0.0266  -5.0114   0.0000   0.0000   0.0000  -0.2730
  -9.100  -0.2897   0.02764   0.02301  -0.1479  0.8392  0.0268  -5.0071   0.0000   0.0000   0.0000  -0.2873
  -9.000  -0.2825   0.02637   0.02151  -0.1487  0.8374  0.0269  -4.9849   0.0000   0.0000   0.0000  -0.3036
  -8.900  -0.2742   0.02533   0.02027  -0.1493  0.8358  0.0270  -4.9487   0.0000   0.0000   0.0000  -0.3221
  -8.800  -0.2653   0.02450   0.01925  -0.1498  0.8343  0.0272  -4.9011   0.0000   0.0000   0.0000  -0.3428
  -8.700  -0.2563   0.02372   0.01831  -0.1502  0.8323  0.0273  -4.8491   0.0000   0.0000   0.0000  -0.3649
  -8.600  -0.2479   0.02261   0.01710  -0.1505  0.8305  0.0275  -4.8001   0.0000   0.0000   0.0000  -0.3867
  -8.500  -0.2384   0.02194   0.01639  -0.1508  0.8290  0.0278  -4.7279   0.0000   0.0000   0.0000  -0.4127
  -8.400  -0.2283   0.02146   0.01586  -0.1510  0.8275  0.0280  -4.6470   0.0000   0.0000   0.0000  -0.4422
  -8.300  -0.2180   0.02106   0.01542  -0.1512  0.8263  0.0282  -4.5635   0.0000   0.0000   0.0000  -0.4754
  -8.200  -0.2077   0.02069   0.01500  -0.1513  0.8247  0.0285  -4.4813   0.0000   0.0000   0.0000  -0.5116
  -8.100  -0.1974   0.02033   0.01460  -0.1514  0.8229  0.0287  -4.4047   0.0000   0.0000   0.0000  -0.5515
  -8.000  -0.1869   0.01997   0.01421  -0.1516  0.8213  0.0290  -4.3311   0.0000   0.0000   0.0000  -0.5965
  -7.900  -0.1764   0.01961   0.01379  -0.1517  0.8198  0.0293  -4.2591   0.0000   0.0000   0.0000  -0.6475
  -7.800  -0.1656   0.01927   0.01338  -0.1519  0.8184  0.0296  -4.1866   0.0000   0.0000   0.0000  -0.7059
  -7.700  -0.1548   0.01894   0.01296  -0.1520  0.8173  0.0300  -4.1151   0.0000   0.0000   0.0000  -0.7733
  -7.600  -0.1440   0.01861   0.01255  -0.1522  0.8158  0.0304  -4.0457   0.0000   0.0000   0.0000  -0.8501
  -7.500  -0.1333   0.01829   0.01215  -0.1523  0.8141  0.0308  -3.9778   0.0000   0.0000   0.0000  -0.9385
  -7.400  -0.1224   0.01800   0.01177  -0.1524  0.8125  0.0311  -3.9093   0.0000   0.0000   0.0000  -1.0446
  -7.300  -0.1113   0.01776   0.01142  -0.1525  0.8111  0.0314  -3.8392   0.0000   0.0000   0.0000  -1.1739
  -7.200  -0.1007   0.01724   0.01086  -0.1526  0.8098  0.0317  -3.7761   0.0000   0.0000   0.0000  -1.3232
  -7.100  -0.0901   0.01680   0.01040  -0.1527  0.8086  0.0320  -3.7091   0.0000   0.0000   0.0000  -1.5087
  -7.000  -0.0792   0.01649   0.01007  -0.1528  0.8074  0.0324  -3.6414   0.0000   0.0000   0.0000  -1.7527
  -6.900  -0.0685   0.01624   0.00982  -0.1529  0.8057  0.0327  -3.5740   0.0000   0.0000   0.0000  -2.0647
  -6.800  -0.0576   0.01601   0.00958  -0.1530  0.8040  0.0330  -3.5069   0.0000   0.0000   0.0000  -2.4991
  -6.700  -0.0467   0.01578   0.00933  -0.1530  0.8024  0.0334  -3.4405   0.0000   0.0000   0.0000  -3.1452
  -6.600  -0.0355   0.01556   0.00907  -0.1531  0.8009  0.0338  -3.3749   0.0000   0.0000   0.0000  -4.2064
  -6.500  -0.0243   0.01534   0.00880  -0.1532  0.7996  0.0343  -3.3100   0.0000   0.0000   0.0000  -6.2635
  -6.400  -0.0130   0.01513   0.00854  -0.1533  0.7984  0.0347  -3.2452   0.0000   0.0000   0.0000  -11.9619
  -6.300  -0.0018   0.01495   0.00832  -0.1534  0.7970  0.0353  -3.1807   0.0000   0.0000   0.0000  -89.3913
  -6.200   0.0094   0.01480   0.00813  -0.1534  0.7954  0.0357  -3.1164   0.0000   0.0000   0.0000  17.1788
  -6.100   0.0203   0.01453   0.00784  -0.1535  0.7938  0.0363  -3.0552   0.0000   0.0000   0.0000   8.0543
  -6.000   0.0311   0.01423   0.00756  -0.1536  0.7923  0.0369  -2.9905   0.0000   0.0000   0.0000   5.3337
  -5.900   0.0424   0.01404   0.00737  -0.1537  0.7910  0.0374  -2.9225   0.0000   0.0000   0.0000   3.9882
  -5.800   0.0537   0.01388   0.00718  -0.1538  0.7897  0.0381  -2.8555   0.0000   0.0000   0.0000   3.1968
  -5.700   0.0652   0.01371   0.00699  -0.1539  0.7886  0.0387  -2.7901   0.0000   0.0000   0.0000   2.6777
  -5.600   0.0764   0.01355   0.00681  -0.1540  0.7871  0.0394  -2.7271   0.0000   0.0000   0.0000   2.3230
  -5.500   0.0875   0.01339   0.00663  -0.1540  0.7854  0.0401  -2.6652   0.0000   0.0000   0.0000   2.0586
  -5.400   0.0989   0.01326   0.00647  -0.1540  0.7838  0.0407  -2.6031   0.0000   0.0000   0.0000   1.8509
  -5.300   0.1100   0.01298   0.00620  -0.1542  0.7824  0.0416  -2.5441   0.0000   0.0000   0.0000   1.6896
  -5.200   0.1214   0.01281   0.00604  -0.1543  0.7811  0.0425  -2.4858   0.0000   0.0000   0.0000   1.5546
  -5.100   0.1330   0.01268   0.00589  -0.1545  0.7800  0.0436  -2.4280   0.0000   0.0000   0.0000   1.4413
  -5.000   0.1447   0.01256   0.00573  -0.1546  0.7789  0.0449  -2.3719   0.0000   0.0000   0.0000   1.3451
  -4.900   0.1560   0.01242   0.00558  -0.1547  0.7774  0.0462  -2.3182   0.0000   0.0000   0.0000   1.2657
  -4.800   0.1672   0.01226   0.00545  -0.1548  0.7758  0.0478  -2.2610   0.0000   0.0000   0.0000   1.1981
  -4.700   0.1785   0.01215   0.00534  -0.1548  0.7742  0.0498  -2.2045   0.0000   0.0000   0.0000   1.1375
  -4.600   0.1900   0.01201   0.00519  -0.1550  0.7728  0.0520  -2.1504   0.0000   0.0000   0.0000   1.0840
  -4.500   0.2016   0.01189   0.00508  -0.1551  0.7714  0.0545  -2.0933   0.0000   0.0000   0.0000   1.0363
  -4.400   0.2134   0.01177   0.00494  -0.1552  0.7702  0.0575  -2.0389   0.0000   0.0000   0.0000   0.9932
  -4.300   0.2251   0.01166   0.00482  -0.1554  0.7691  0.0608  -1.9821   0.0000   0.0000   0.0000   0.9547
  -4.200   0.2365   0.01153   0.00470  -0.1555  0.7676  0.0645  -1.9278   0.0000   0.0000   0.0000   0.9209
  -4.100   0.2478   0.01144   0.00461  -0.1555  0.7659  0.0687  -1.8778   0.0000   0.0000   0.0000   0.8902
  -4.000   0.2592   0.01131   0.00451  -0.1557  0.7642  0.0731  -1.8277   0.0000   0.0000   0.0000   0.8622
  -3.900   0.2707   0.01120   0.00441  -0.1558  0.7627  0.0780  -1.7773   0.0000   0.0000   0.0000   0.8362
  -3.800   0.2824   0.01110   0.00432  -0.1559  0.7613  0.0835  -1.7263   0.0000   0.0000   0.0000   0.8121
  -3.700   0.2941   0.01102   0.00423  -0.1560  0.7601  0.0898  -1.6747   0.0000   0.0000   0.0000   0.7898
  -3.600   0.3060   0.01094   0.00415  -0.1562  0.7589  0.0968  -1.6229   0.0000   0.0000   0.0000   0.7691
  -3.500   0.3171   0.01085   0.00410  -0.1563  0.7571  0.1043  -1.5729   0.0000   0.0000   0.0000   0.7508
  -3.400   0.3284   0.01076   0.00405  -0.1563  0.7553  0.1124  -1.5226   0.0000   0.0000   0.0000   0.7336
  -3.300   0.3399   0.01067   0.00400  -0.1565  0.7537  0.1214  -1.4720   0.0000   0.0000   0.0000   0.7173
  -3.200   0.3515   0.01059   0.00395  -0.1566  0.7522  0.1313  -1.4214   0.0000   0.0000   0.0000   0.7020
  -3.100   0.3632   0.01052   0.00389  -0.1567  0.7509  0.1417  -1.3708   0.0000   0.0000   0.0000   0.6875
  -3.000   0.3750   0.01045   0.00383  -0.1569  0.7497  0.1527  -1.3202   0.0000   0.0000   0.0000   0.6739
  -2.900   0.3867   0.01039   0.00380  -0.1570  0.7484  0.1642  -1.2703   0.0000   0.0000   0.0000   0.6613
  -2.800   0.3979   0.01032   0.00378  -0.1571  0.7466  0.1762  -1.2219   0.0000   0.0000   0.0000   0.6497
  -2.700   0.4092   0.01025   0.00376  -0.1572  0.7449  0.1890  -1.1734   0.0000   0.0000   0.0000   0.6386
  -2.600   0.4207   0.01019   0.00373  -0.1573  0.7433  0.2018  -1.1250   0.0000   0.0000   0.0000   0.6280
  -2.500   0.4324   0.01013   0.00369  -0.1574  0.7419  0.2148  -1.0768   0.0000   0.0000   0.0000   0.6179
  -2.400   0.4441   0.01007   0.00366  -0.1576  0.7405  0.2280  -1.0323   0.0000   0.0000   0.0000   0.6083
  -2.300   0.4560   0.01002   0.00362  -0.1577  0.7393  0.2411  -0.9884   0.0000   0.0000   0.0000   0.5991
  -2.200   0.4674   0.00997   0.00361  -0.1578  0.7377  0.2537  -0.9459   0.0000   0.0000   0.0000   0.5905
  -2.100   0.4786   0.00992   0.00360  -0.1579  0.7357  0.2666  -0.9041   0.0000   0.0000   0.0000   0.5824
  -2.000   0.4900   0.00986   0.00358  -0.1580  0.7339  0.2803  -0.8623   0.0000   0.0000   0.0000   0.5747
  -1.900   0.5016   0.00981   0.00356  -0.1581  0.7322  0.2946  -0.8265   0.0000   0.0000   0.0000   0.5672
  -1.800   0.5133   0.00976   0.00353  -0.1582  0.7307  0.3092  -0.8346   0.0000   0.0000   0.0000   0.5600
  -1.700   0.5251   0.00971   0.00350  -0.1584  0.7293  0.3246  -0.8427   0.0000   0.0000   0.0000   0.5531
  -1.600   0.5366   0.00967   0.00350  -0.1584  0.7276  0.3411  -0.8506   0.0000   0.0000   0.0000   0.5466
  -1.500   0.5477   0.00961   0.00350  -0.1585  0.7255  0.3583  -0.8583   0.0000   0.0000   0.0000   0.5405
  -1.400   0.5591   0.00956   0.00350  -0.1586  0.7236  0.3760  -0.8661   0.0000   0.0000   0.0000   0.5345
  -1.300   0.5707   0.00951   0.00349  -0.1587  0.7220  0.3934  -0.8741   0.0000   0.0000   0.0000   0.5287
  -1.200   0.5824   0.00946   0.00347  -0.1588  0.7204  0.4115  -0.8821   0.0000   0.0000   0.0000   0.5231
  -1.100   0.5942   0.00943   0.00346  -0.1589  0.7191  0.4291  -0.8903   0.0000   0.0000   0.0000   0.5178
  -1.000   0.6057   0.00939   0.00346  -0.1590  0.7176  0.4466  -0.8983   0.0000   0.0000   0.0000   0.5126
  -0.900   0.6168   0.00934   0.00348  -0.1591  0.7155  0.4652  -0.9071   0.0000   0.0000   0.0000   0.5078
  -0.800   0.6281   0.00929   0.00349  -0.1591  0.7136  0.4850  -0.9161   0.0000   0.0000   0.0000   0.5030
  -0.700   0.6396   0.00925   0.00349  -0.1592  0.7118  0.5059  -0.9252   0.0000   0.0000   0.0000   0.4984
  -0.600   0.6512   0.00920   0.00349  -0.1593  0.7102  0.5275  -0.9344   0.0000   0.0000   0.0000   0.4940
  -0.500   0.6628   0.00915   0.00348  -0.1594  0.7087  0.5512  -0.9437   0.0000   0.0000   0.0000   0.4896
  -0.400   0.6742   0.00911   0.00351  -0.1594  0.7071  0.5749  -0.9528   0.0000   0.0000   0.0000   0.4855
  -0.300   0.6850   0.00907   0.00354  -0.1594  0.7049  0.5987  -0.9617   0.0000   0.0000   0.0000   0.4815
  -0.200   0.6961   0.00903   0.00357  -0.1594  0.7029  0.6221  -0.9709   0.0000   0.0000   0.0000   0.4776
  -0.100   0.7073   0.00899   0.00358  -0.1593  0.7010  0.6437  -0.9802   0.0000   0.0000   0.0000   0.4738
   0.000   0.7186   0.00896   0.00359  -0.1593  0.6992  0.6652  -0.9896   0.0000   0.0000   0.0000   0.4701
   0.100   0.7300   0.00895   0.00359  -0.1593  0.6977  0.6861  -0.9991   0.0000   0.0000   0.0000   0.4664
   0.200   0.7404   0.00892   0.00364  -0.1591  0.6952  0.7055  -1.0079   0.0000   0.0000   0.0000   0.4630
   0.300   0.7510   0.00890   0.00367  -0.1590  0.6928  0.7246  -1.0169   0.0000   0.0000   0.0000   0.4596
   0.400   0.7618   0.00889   0.00368  -0.1588  0.6907  0.7419  -1.0260   0.0000   0.0000   0.0000   0.4562
   0.500   0.7728   0.00888   0.00369  -0.1587  0.6888  0.7576  -1.0353   0.0000   0.0000   0.0000   0.4530
   0.600   0.7839   0.00888   0.00369  -0.1586  0.6873  0.7720  -1.0446   0.0000   0.0000   0.0000   0.4498
   0.800   0.8047   0.00887   0.00375  -0.1582  0.6826  0.7970  -1.0626   0.0000   0.0000   0.0000   0.4438
   0.900   0.8153   0.00886   0.00377  -0.1581  0.6805  0.8083  -1.0730   0.0000   0.0000   0.0000   0.4409
   1.000   0.8259   0.00886   0.00377  -0.1579  0.6786  0.8195  -1.0835   0.0000   0.0000   0.0000   0.4380
   1.100   0.8365   0.00886   0.00377  -0.1577  0.6770  0.8309  -1.0939   0.0000   0.0000   0.0000   0.4352
   1.200   0.8465   0.00885   0.00379  -0.1574  0.6748  0.8427  -1.1040   0.0000   0.0000   0.0000   0.4325
   1.300   0.8562   0.00884   0.00382  -0.1570  0.6723  0.8548  -1.1138   0.0000   0.0000   0.0000   0.4298
   1.400   0.8658   0.00882   0.00382  -0.1566  0.6700  0.8671  -1.1237   0.0000   0.0000   0.0000   0.4272
   1.500   0.8753   0.00880   0.00381  -0.1561  0.6679  0.8798  -1.1338   0.0000   0.0000   0.0000   0.4246
   1.600   0.8847   0.00878   0.00379  -0.1556  0.6661  0.8931  -1.1439   0.0000   0.0000   0.0000   0.4220
   1.700   0.8928   0.00875   0.00381  -0.1549  0.6632  0.9078  -1.1531   0.0000   0.0000   0.0000   0.4194
   1.800   0.9008   0.00870   0.00380  -0.1541  0.6604  0.9252  -1.1623   0.0000   0.0000   0.0000   0.4169
   1.900   0.9099   0.00864   0.00375  -0.1536  0.6579  0.9485  -1.1723   0.0000   0.0000   0.0000   0.4144
   2.000   0.9238   0.00860   0.00368  -0.1541  0.6557  1.0000  -1.1853   0.0000   0.0000   0.0000   0.4123
   2.100   0.9352   0.00863   0.00371  -0.1542  0.6526  1.0000  -1.1966   0.0000   0.0000   0.0000   0.4103
   2.200   0.9468   0.00865   0.00372  -0.1544  0.6496  1.0000  -1.2095   0.0000   0.0000   0.0000   0.4083
   2.300   0.9584   0.00868   0.00372  -0.1545  0.6471  1.0000  -1.2232   0.0000   0.0000   0.0000   0.4063
   2.400   0.9703   0.00872   0.00372  -0.1547  0.6450  1.0000  -1.2371   0.0000   0.0000   0.0000   0.4043
   2.500   0.9815   0.00875   0.00376  -0.1547  0.6421  1.0000  -1.2505   0.0000   0.0000   0.0000   0.4025
   2.600   0.9929   0.00879   0.00379  -0.1548  0.6392  1.0000  -1.2641   0.0000   0.0000   0.0000   0.4006
   2.700   1.0043   0.00882   0.00380  -0.1549  0.6366  1.0000  -1.2777   0.0000   0.0000   0.0000   0.3988
   2.800   1.0159   0.00887   0.00381  -0.1550  0.6344  1.0000  -1.2916   0.0000   0.0000   0.0000   0.3970
   2.900   1.0270   0.00890   0.00385  -0.1551  0.6312  1.0000  -1.3049   0.0000   0.0000   0.0000   0.3953
   3.000   1.0381   0.00894   0.00388  -0.1551  0.6280  1.0000  -1.3184   0.0000   0.0000   0.0000   0.3935
   3.100   1.0493   0.00898   0.00390  -0.1551  0.6251  1.0000  -1.3321   0.0000   0.0000   0.0000   0.3919
   3.200   1.0605   0.00903   0.00392  -0.1552  0.6222  1.0000  -1.3457   0.0000   0.0000   0.0000   0.3902
   3.300   1.0713   0.00906   0.00397  -0.1552  0.6185  1.0000  -1.3591   0.0000   0.0000   0.0000   0.3886
   3.400   1.0823   0.00911   0.00399  -0.1552  0.6151  1.0000  -1.3727   0.0000   0.0000   0.0000   0.3870
   3.500   1.0934   0.00916   0.00401  -0.1552  0.6121  1.0000  -1.3863   0.0000   0.0000   0.0000   0.3854
   3.600   1.1041   0.00920   0.00406  -0.1551  0.6081  1.0000  -1.3997   0.0000   0.0000   0.0000   0.3838
   3.700   1.1149   0.00925   0.00409  -0.1551  0.6046  1.0000  -1.4132   0.0000   0.0000   0.0000   0.3823
   3.800   1.1259   0.00931   0.00412  -0.1551  0.6017  1.0000  -1.4272   0.0000   0.0000   0.0000   0.3808
   3.900   1.1366   0.00935   0.00418  -0.1551  0.5977  1.0000  -1.4410   0.0000   0.0000   0.0000   0.3793
   4.000   1.1473   0.00941   0.00422  -0.1550  0.5943  1.0000  -1.4559   0.0000   0.0000   0.0000   0.3779
   4.100   1.1581   0.00948   0.00426  -0.1550  0.5913  1.0000  -1.4712   0.0000   0.0000   0.0000   0.3764
   4.200   1.1688   0.00953   0.00432  -0.1549  0.5874  1.0000  -1.4865   0.0000   0.0000   0.0000   0.3751
   4.300   1.1794   0.00959   0.00437  -0.1549  0.5838  1.0000  -1.5022   0.0000   0.0000   0.0000   0.3737
   4.400   1.1900   0.00966   0.00441  -0.1548  0.5806  1.0000  -1.5179   0.0000   0.0000   0.0000   0.3723
   4.500   1.2005   0.00972   0.00448  -0.1547  0.5766  1.0000  -1.5336   0.0000   0.0000   0.0000   0.3710
   4.600   1.2110   0.00979   0.00453  -0.1547  0.5728  1.0000  -1.5493   0.0000   0.0000   0.0000   0.3696
   4.700   1.2214   0.00987   0.00459  -0.1546  0.5695  1.0000  -1.5656   0.0000   0.0000   0.0000   0.3683
   4.800   1.2318   0.00993   0.00466  -0.1545  0.5652  1.0000  -1.5823   0.0000   0.0000   0.0000   0.3670
   4.900   1.2420   0.01001   0.00472  -0.1543  0.5612  1.0000  -1.5990   0.0000   0.0000   0.0000   0.3658
   5.000   1.2522   0.01009   0.00478  -0.1542  0.5573  1.0000  -1.6156   0.0000   0.0000   0.0000   0.3645
   5.100   1.2623   0.01016   0.00486  -0.1541  0.5526  1.0000  -1.6323   0.0000   0.0000   0.0000   0.3633
   5.200   1.2723   0.01026   0.00492  -0.1539  0.5484  1.0000  -1.6488   0.0000   0.0000   0.0000   0.3620
   5.300   1.2823   0.01034   0.00500  -0.1537  0.5438  1.0000  -1.6670   0.0000   0.0000   0.0000   0.3608
   5.400   1.2922   0.01042   0.00508  -0.1535  0.5393  1.0000  -1.6862   0.0000   0.0000   0.0000   0.3596
   5.500   1.3020   0.01052   0.00516  -0.1533  0.5351  1.0000  -1.7058   0.0000   0.0000   0.0000   0.3584
   5.600   1.3120   0.01061   0.00525  -0.1532  0.5305  1.0000  -1.7254   0.0000   0.0000   0.0000   0.3572
   5.700   1.3216   0.01071   0.00533  -0.1530  0.5263  1.0000  -1.7449   0.0000   0.0000   0.0000   0.3561
   5.800   1.3314   0.01080   0.00542  -0.1528  0.5217  1.0000  -1.7646   0.0000   0.0000   0.0000   0.3549
   5.900   1.3410   0.01091   0.00551  -0.1525  0.5172  1.0000  -1.7841   0.0000   0.0000   0.0000   0.3538
   6.000   1.3504   0.01102   0.00560  -0.1523  0.5128  1.0000  -1.8035   0.0000   0.0000   0.0000   0.3527
   6.100   1.3599   0.01112   0.00570  -0.1520  0.5079  1.0000  -1.8235   0.0000   0.0000   0.0000   0.3515
   6.200   1.3689   0.01126   0.00581  -0.1517  0.5034  1.0000  -1.8473   0.0000   0.0000   0.0000   0.3504
   6.300   1.3784   0.01135   0.00591  -0.1515  0.4982  1.0000  -1.8718   0.0000   0.0000   0.0000   0.3493
   6.400   1.3872   0.01149   0.00602  -0.1511  0.4933  1.0000  -1.8955   0.0000   0.0000   0.0000   0.3482
   6.500   1.3964   0.01160   0.00613  -0.1508  0.4880  1.0000  -1.9198   0.0000   0.0000   0.0000   0.3471
   6.600   1.4050   0.01174   0.00625  -0.1504  0.4829  1.0000  -1.9435   0.0000   0.0000   0.0000   0.3460
   6.700   1.4140   0.01186   0.00637  -0.1501  0.4777  1.0000  -1.9676   0.0000   0.0000   0.0000   0.3450
   6.800   1.4225   0.01200   0.00649  -0.1497  0.4725  1.0000  -1.9913   0.0000   0.0000   0.0000   0.3439
   6.900   1.4312   0.01213   0.00661  -0.1493  0.4673  1.0000  -2.0153   0.0000   0.0000   0.0000   0.3429
   7.000   1.4396   0.01227   0.00675  -0.1489  0.4622  1.0000  -2.0390   0.0000   0.0000   0.0000   0.3418
   7.100   1.4480   0.01242   0.00688  -0.1485  0.4572  1.0000  -2.0627   0.0000   0.0000   0.0000   0.3408
   7.200   1.4562   0.01256   0.00702  -0.1481  0.4519  1.0000  -2.0863   0.0000   0.0000   0.0000   0.3397
   7.300   1.4641   0.01272   0.00716  -0.1476  0.4467  1.0000  -2.1095   0.0000   0.0000   0.0000   0.3387
   7.400   1.4719   0.01288   0.00731  -0.1471  0.4411  1.0000  -2.1340   0.0000   0.0000   0.0000   0.3376
   7.500   1.4794   0.01305   0.00746  -0.1465  0.4357  1.0000  -2.1635   0.0000   0.0000   0.0000   0.3366
   7.600   1.4868   0.01322   0.00762  -0.1459  0.4299  1.0000  -2.1930   0.0000   0.0000   0.0000   0.3355
   7.700   1.4938   0.01340   0.00778  -0.1453  0.4245  1.0000  -2.2218   0.0000   0.0000   0.0000   0.3345
   7.800   1.5002   0.01357   0.00794  -0.1445  0.4189  1.0000  -2.2501   0.0000   0.0000   0.0000   0.3334
   7.900   1.5067   0.01376   0.00812  -0.1438  0.4135  1.0000  -2.2784   0.0000   0.0000   0.0000   0.3323
   8.000   1.5132   0.01395   0.00830  -0.1430  0.4079  1.0000  -2.3067   0.0000   0.0000   0.0000   0.3313
   8.100   1.5196   0.01415   0.00848  -0.1423  0.4026  1.0000  -2.3351   0.0000   0.0000   0.0000   0.3302
   8.200   1.5258   0.01435   0.00868  -0.1416  0.3971  1.0000  -2.3632   0.0000   0.0000   0.0000   0.3292
   8.300   1.5319   0.01456   0.00888  -0.1408  0.3919  1.0000  -2.3913   0.0000   0.0000   0.0000   0.3282
   8.400   1.5379   0.01479   0.00909  -0.1400  0.3864  1.0000  -2.4191   0.0000   0.0000   0.0000   0.3272
   8.500   1.5437   0.01502   0.00931  -0.1393  0.3813  1.0000  -2.4469   0.0000   0.0000   0.0000   0.3261
   8.600   1.5494   0.01526   0.00954  -0.1385  0.3761  1.0000  -2.4745   0.0000   0.0000   0.0000   0.3251
   8.700   1.5550   0.01551   0.00977  -0.1377  0.3713  1.0000  -2.5020   0.0000   0.0000   0.0000   0.3241
   8.800   1.5607   0.01576   0.01002  -0.1369  0.3661  1.0000  -2.5298   0.0000   0.0000   0.0000   0.3232
   8.900   1.5659   0.01603   0.01028  -0.1361  0.3613  1.0000  -2.5568   0.0000   0.0000   0.0000   0.3222
   9.000   1.5715   0.01629   0.01054  -0.1353  0.3557  1.0000  -2.5845   0.0000   0.0000   0.0000   0.3212
   9.100   1.5764   0.01660   0.01083  -0.1345  0.3506  1.0000  -2.6153   0.0000   0.0000   0.0000   0.3202
   9.200   1.5815   0.01689   0.01112  -0.1337  0.3449  1.0000  -2.6524   0.0000   0.0000   0.0000   0.3193
   9.300   1.5862   0.01721   0.01143  -0.1329  0.3394  1.0000  -2.6905   0.0000   0.0000   0.0000   0.3183
   9.400   1.5908   0.01755   0.01175  -0.1321  0.3336  1.0000  -2.7296   0.0000   0.0000   0.0000   0.3174
   9.500   1.5955   0.01788   0.01207  -0.1313  0.3280  1.0000  -2.7703   0.0000   0.0000   0.0000   0.3165
   9.600   1.5995   0.01827   0.01244  -0.1304  0.3226  1.0000  -2.8092   0.0000   0.0000   0.0000   0.3156
   9.700   1.6044   0.01861   0.01277  -0.1297  0.3172  1.0000  -2.8611   0.0000   0.0000   0.0000   0.3147
   9.800   1.6082   0.01902   0.01316  -0.1288  0.3121  1.0000  -2.9111   0.0000   0.0000   0.0000   0.3138
   9.900   1.6132   0.01937   0.01352  -0.1281  0.3070  1.0000  -2.9653   0.0000   0.0000   0.0000   0.3129
  10.000   1.6168   0.01980   0.01393  -0.1273  0.3021  1.0000  -3.0154   0.0000   0.0000   0.0000   0.3120
  10.100   1.6217   0.02017   0.01431  -0.1266  0.2969  1.0000  -3.0698   0.0000   0.0000   0.0000   0.3112
  10.200   1.6252   0.02062   0.01474  -0.1258  0.2921  1.0000  -3.1200   0.0000   0.0000   0.0000   0.3103
  10.300   1.6300   0.02100   0.01513  -0.1251  0.2869  1.0000  -3.1748   0.0000   0.0000   0.0000   0.3095
  10.400   1.6334   0.02148   0.01559  -0.1243  0.2821  1.0000  -3.2251   0.0000   0.0000   0.0000   0.3087
  10.500   1.6380   0.02189   0.01600  -0.1236  0.2769  1.0000  -3.2798   0.0000   0.0000   0.0000   0.3078
  10.600   1.6411   0.02240   0.01649  -0.1228  0.2722  1.0000  -3.3296   0.0000   0.0000   0.0000   0.3070
  10.700   1.6454   0.02283   0.01693  -0.1222  0.2673  1.0000  -3.3838   0.0000   0.0000   0.0000   0.3062
  10.800   1.6482   0.02337   0.01746  -0.1213  0.2627  1.0000  -3.4329   0.0000   0.0000   0.0000   0.3054
  10.900   1.6522   0.02384   0.01793  -0.1207  0.2577  1.0000  -3.4867   0.0000   0.0000   0.0000   0.3046
  11.000   1.6545   0.02443   0.01849  -0.1198  0.2529  1.0000  -3.5345   0.0000   0.0000   0.0000   0.3038
  11.100   1.6583   0.02492   0.01899  -0.1192  0.2475  1.0000  -3.5880   0.0000   0.0000   0.0000   0.3031
  11.200   1.6603   0.02554   0.01959  -0.1183  0.2425  1.0000  -3.6352   0.0000   0.0000   0.0000   0.3023
  11.300   1.6636   0.02607   0.02012  -0.1176  0.2369  1.0000  -3.6876   0.0000   0.0000   0.0000   0.3015
  11.400   1.6659   0.02669   0.02072  -0.1169  0.2318  1.0000  -3.7362   0.0000   0.0000   0.0000   0.3008
  11.500   1.6683   0.02729   0.02131  -0.1161  0.2262  1.0000  -3.7857   0.0000   0.0000   0.0000   0.3000
  11.600   1.6709   0.02789   0.02190  -0.1154  0.2209  1.0000  -3.8360   0.0000   0.0000   0.0000   0.2993
  11.800   1.6752   0.02918   0.02316  -0.1139  0.2104  1.0000  -3.9337   0.0000   0.0000   0.0000   0.2978
  11.900   1.6768   0.02988   0.02385  -0.1131  0.2056  1.0000  -3.9805   0.0000   0.0000   0.0000   0.2971
  12.000   1.6791   0.03052   0.02448  -0.1125  0.2005  1.0000  -4.0304   0.0000   0.0000   0.0000   0.2964
  12.100   1.6808   0.03121   0.02517  -0.1117  0.1958  1.0000  -4.0781   0.0000   0.0000   0.0000   0.2957
  12.200   1.6824   0.03191   0.02586  -0.1110  0.1910  1.0000  -4.1257   0.0000   0.0000   0.0000   0.2950
  12.300   1.6842   0.03261   0.02655  -0.1103  0.1865  1.0000  -4.1742   0.0000   0.0000   0.0000   0.2943
  12.400   1.6853   0.03336   0.02729  -0.1095  0.1819  1.0000  -4.2202   0.0000   0.0000   0.0000   0.2936
  12.500   1.6874   0.03405   0.02798  -0.1089  0.1773  1.0000  -4.2700   0.0000   0.0000   0.0000   0.2929
  12.600   1.6881   0.03485   0.02877  -0.1082  0.1729  1.0000  -4.3145   0.0000   0.0000   0.0000   0.2922
  12.700   1.6903   0.03554   0.02946  -0.1075  0.1681  1.0000  -4.3652   0.0000   0.0000   0.0000   0.2916
  12.800   1.6911   0.03636   0.03027  -0.1068  0.1639  1.0000  -4.4102   0.0000   0.0000   0.0000   0.2909
  12.900   1.6928   0.03711   0.03102  -0.1062  0.1594  1.0000  -4.4591   0.0000   0.0000   0.0000   0.2903
  13.000   1.6934   0.03794   0.03185  -0.1055  0.1555  1.0000  -4.5039   0.0000   0.0000   0.0000   0.2896
  13.100   1.6947   0.03873   0.03264  -0.1049  0.1514  1.0000  -4.5515   0.0000   0.0000   0.0000   0.2890
  13.200   1.6952   0.03961   0.03350  -0.1043  0.1477  1.0000  -4.5959   0.0000   0.0000   0.0000   0.2884
  13.300   1.6964   0.04043   0.03432  -0.1037  0.1438  1.0000  -4.6431   0.0000   0.0000   0.0000   0.2878
  13.400   1.6967   0.04134   0.03524  -0.1030  0.1404  1.0000  -4.6866   0.0000   0.0000   0.0000   0.2872
  13.500   1.6981   0.04216   0.03606  -0.1025  0.1365  1.0000  -4.7353   0.0000   0.0000   0.0000   0.2866
  13.600   1.6983   0.04310   0.03700  -0.1019  0.1331  1.0000  -4.7785   0.0000   0.0000   0.0000   0.2860
  13.700   1.6996   0.04394   0.03785  -0.1013  0.1294  1.0000  -4.8268   0.0000   0.0000   0.0000   0.2854
  13.800   1.6994   0.04494   0.03884  -0.1008  0.1262  1.0000  -4.8687   0.0000   0.0000   0.0000   0.2849
  13.900   1.7008   0.04580   0.03971  -0.1003  0.1227  1.0000  -4.9172   0.0000   0.0000   0.0000   0.2843
  14.000   1.7003   0.04683   0.04074  -0.0997  0.1196  1.0000  -4.9581   0.0000   0.0000   0.0000   0.2838
  14.100   1.7014   0.04772   0.04164  -0.0992  0.1163  1.0000  -5.0059   0.0000   0.0000   0.0000   0.2832
  14.200   1.7012   0.04875   0.04267  -0.0987  0.1132  1.0000  -5.0477   0.0000   0.0000   0.0000   0.2827
  14.300   1.7016   0.04972   0.04365  -0.0982  0.1102  1.0000  -5.0928   0.0000   0.0000   0.0000   0.2822
  14.400   1.7015   0.05076   0.04469  -0.0977  0.1072  1.0000  -5.1354   0.0000   0.0000   0.0000   0.2817
  14.500   1.7013   0.05182   0.04576  -0.0972  0.1045  1.0000  -5.1777   0.0000   0.0000   0.0000   0.2812
  14.600   1.7016   0.05284   0.04679  -0.0968  0.1015  1.0000  -5.2220   0.0000   0.0000   0.0000   0.2807
  14.700   1.7005   0.05402   0.04796  -0.0963  0.0990  1.0000  -5.2604   0.0000   0.0000   0.0000   0.2802
  14.800   1.7013   0.05500   0.04896  -0.0960  0.0962  1.0000  -5.3074   0.0000   0.0000   0.0000   0.2798
  14.900   1.7007   0.05614   0.05011  -0.0956  0.0936  1.0000  -5.3476   0.0000   0.0000   0.0000   0.2793
  15.000   1.7006   0.05723   0.05122  -0.0952  0.0912  1.0000  -5.3907   0.0000   0.0000   0.0000   0.2789
  15.100   1.7005   0.05834   0.05233  -0.0948  0.0886  1.0000  -5.4337   0.0000   0.0000   0.0000   0.2784
  15.200   1.6991   0.05959   0.05359  -0.0944  0.0865  1.0000  -5.4704   0.0000   0.0000   0.0000   0.2780
  15.300   1.6997   0.06062   0.05465  -0.0941  0.0841  1.0000  -5.5165   0.0000   0.0000   0.0000   0.2776
  15.400   1.6989   0.06182   0.05586  -0.0938  0.0819  1.0000  -5.5561   0.0000   0.0000   0.0000   0.2772
  15.500   1.6979   0.06306   0.05710  -0.0935  0.0800  1.0000  -5.5946   0.0000   0.0000   0.0000   0.2768
  15.600   1.6978   0.06419   0.05826  -0.0932  0.0779  1.0000  -5.6376   0.0000   0.0000   0.0000   0.2764
  15.700   1.6965   0.06548   0.05956  -0.0929  0.0760  1.0000  -5.6749   0.0000   0.0000   0.0000   0.2760
  15.800   1.6954   0.06677   0.06087  -0.0926  0.0743  1.0000  -5.7126   0.0000   0.0000   0.0000   0.2757
  15.900   1.6952   0.06795   0.06207  -0.0924  0.0723  1.0000  -5.7549   0.0000   0.0000   0.0000   0.2753
  16.000   1.6939   0.06926   0.06340  -0.0922  0.0706  1.0000  -5.7920   0.0000   0.0000   0.0000   0.2749
  16.100   1.6920   0.07067   0.06483  -0.0919  0.0691  1.0000  -5.8258   0.0000   0.0000   0.0000   0.2746
  16.200   1.6918   0.07186   0.06605  -0.0918  0.0673  1.0000  -5.8684   0.0000   0.0000   0.0000   0.2743
  16.300   1.6904   0.07323   0.06744  -0.0916  0.0656  1.0000  -5.9046   0.0000   0.0000   0.0000   0.2740
  16.400   1.6880   0.07472   0.06894  -0.0914  0.0642  1.0000  -5.9359   0.0000   0.0000   0.0000   0.2737
  16.500   1.6875   0.07599   0.07024  -0.0913  0.0626  1.0000  -5.9762   0.0000   0.0000   0.0000   0.2734
  16.600   1.6864   0.07733   0.07161  -0.0911  0.0610  1.0000  -6.0135   0.0000   0.0000   0.0000   0.2731
  16.700   1.6841   0.07881   0.07311  -0.0910  0.0596  1.0000  -6.0453   0.0000   0.0000   0.0000   0.2729
  16.800   1.6819   0.08030   0.07462  -0.0909  0.0583  1.0000  -6.0770   0.0000   0.0000   0.0000   0.2727
  16.900   1.6811   0.08162   0.07597  -0.0908  0.0568  1.0000  -6.1157   0.0000   0.0000   0.0000   0.2724
  17.000   1.6791   0.08311   0.07749  -0.0908  0.0554  1.0000  -6.1479   0.0000   0.0000   0.0000   0.2722
  17.100   1.6761   0.08473   0.07912  -0.0908  0.0542  1.0000  -6.1755   0.0000   0.0000   0.0000   0.2720
  17.200   1.6745   0.08620   0.08062  -0.0907  0.0529  1.0000  -6.2093   0.0000   0.0000   0.0000   0.2718
  17.300   1.6733   0.08761   0.08206  -0.0907  0.0515  1.0000  -6.2452   0.0000   0.0000   0.0000   0.2716
  17.400   1.6708   0.08920   0.08368  -0.0908  0.0502  1.0000  -6.2744   0.0000   0.0000   0.0000   0.2715
  17.500   1.6673   0.09092   0.08542  -0.0908  0.0492  1.0000  -6.2986   0.0000   0.0000   0.0000   0.2714
  17.600   1.6659   0.09240   0.08694  -0.0909  0.0479  1.0000  -6.3326   0.0000   0.0000   0.0000   0.2712
  17.700   1.6639   0.09393   0.08850  -0.0910  0.0467  1.0000  -6.3641   0.0000   0.0000   0.0000   0.2710
  17.800   1.6609   0.09564   0.09022  -0.0911  0.0456  1.0000  -6.3896   0.0000   0.0000   0.0000   0.2710
  17.900   1.6570   0.09746   0.09206  -0.0912  0.0447  1.0000  -6.4103   0.0000   0.0000   0.0000   0.2709
  18.000   1.6549   0.09906   0.09370  -0.0914  0.0436  1.0000  -6.4396   0.0000   0.0000   0.0000   0.2708
  18.100   1.6526   0.10064   0.09532  -0.0915  0.0425  1.0000  -6.4685   0.0000   0.0000   0.0000   0.2708
  18.200   1.6493   0.10240   0.09710  -0.0917  0.0416  1.0000  -6.4914   0.0000   0.0000   0.0000   0.2707
  18.300   1.6453   0.10426   0.09899  -0.0920  0.0408  1.0000  -6.5101   0.0000   0.0000   0.0000   0.2708
  18.400   1.6410   0.10619   0.10094  -0.0923  0.0400  1.0000  -6.5266   0.0000   0.0000   0.0000   0.2708
  18.500   1.6393   0.10774   0.10253  -0.0925  0.0390  1.0000  -6.5571   0.0000   0.0000   0.0000   0.2708
  18.600   1.6364   0.10947   0.10431  -0.0928  0.0381  1.0000  -6.5836   0.0000   0.0000   0.0000   0.2708
  18.700   1.6330   0.11130   0.10616  -0.0931  0.0373  1.0000  -6.6104   0.0000   0.0000   0.0000   0.2709
  18.800   1.6286   0.11328   0.10816  -0.0935  0.0366  1.0000  -6.6309   0.0000   0.0000   0.0000   0.2710
  18.900   1.6236   0.11537   0.11027  -0.0940  0.0360  1.0000  -6.6466   0.0000   0.0000   0.0000   0.2712
  19.000   1.6222   0.11693   0.11188  -0.0943  0.0352  1.0000  -6.6850   0.0000   0.0000   0.0000   0.2712
  19.100   1.6198   0.11862   0.11362  -0.0946  0.0343  1.0000  -6.7174   0.0000   0.0000   0.0000   0.2713
  19.200   1.6166   0.12046   0.11549  -0.0951  0.0336  1.0000  -6.7437   0.0000   0.0000   0.0000   0.2714
  19.300   1.6129   0.12238   0.11743  -0.0956  0.0330  1.0000  -6.7667   0.0000   0.0000   0.0000   0.2716
  19.400   1.6085   0.12443   0.11951  -0.0962  0.0325  1.0000  -6.7840   0.0000   0.0000   0.0000   0.2718
  19.500   1.6042   0.12648   0.12157  -0.0968  0.0320  1.0000  -6.8013   0.0000   0.0000   0.0000   0.2721
  19.600   1.6026   0.12809   0.12324  -0.0972  0.0313  1.0000  -6.8363   0.0000   0.0000   0.0000   0.2722
  19.700   1.6004   0.12979   0.12498  -0.0977  0.0306  1.0000  -6.8673   0.0000   0.0000   0.0000   0.2723
  19.800   1.5974   0.13163   0.12686  -0.0983  0.0300  1.0000  -6.8930   0.0000   0.0000   0.0000   0.2726
  19.900   1.5941   0.13353   0.12878  -0.0989  0.0295  1.0000  -6.9158   0.0000   0.0000   0.0000   0.2728
  20.000   1.5901   0.13554   0.13081  -0.0996  0.0290  1.0000  -6.9335   0.0000   0.0000   0.0000   0.2731


