xflr5 v6.57

 Calculated polar for: rev_root_140

 1 1 Reynolds number fixed          Mach number fixed         

 xtrf =   1.000 (top)        1.000 (bottom)
 Mach =   0.000     Re =     0.600 e 6     Ncrit =   9.000

  alpha     CL        CD       CDp       Cm    Top Xtr Bot Xtr   Cpmin    Chinge    XCp    
 ------- -------- --------- --------- -------- ------- ------- -------- --------- ---------
 -10.000  -0.3903   0.02602   0.02172  -0.1457  0.8337  0.0212  -6.1077   0.0000   0.0000   0.0000  -0.1466
  -9.900  -0.3816   0.02544   0.02107  -0.1462  0.8316  0.0214  -6.0295   0.0000   0.0000   0.0000  -0.1565
  -9.800  -0.3726   0.02488   0.02044  -0.1466  0.8297  0.0216  -5.9503   0.0000   0.0000   0.0000  -0.1670
  -9.700  -0.3635   0.02431   0.01978  -0.1470  0.8280  0.0218  -5.8724   0.0000   0.0000   0.0000  -0.1782
  -9.600  -0.3543   0.02374   0.01910  -0.1474  0.8265  0.0220  -5.7967   0.0000   0.0000   0.0000  -0.1900
  -9.500  -0.3451   0.02314   0.01840  -0.1478  0.8248  0.0223  -5.7231   0.0000   0.0000   0.0000  -0.2026
  -9.400  -0.3357   0.02254   0.01770  -0.1481  0.8229  0.0226  -5.6506   0.0000   0.0000   0.0000  -0.2160
  -9.300  -0.3261   0.02197   0.01702  -0.1485  0.8212  0.0228  -5.5777   0.0000   0.0000   0.0000  -0.2304
  -9.200  -0.3163   0.02144   0.01638  -0.1488  0.8195  0.0230  -5.5033   0.0000   0.0000   0.0000  -0.2458
  -9.100  -0.3063   0.02096   0.01577  -0.1490  0.8181  0.0231  -5.4267   0.0000   0.0000   0.0000  -0.2625
  -9.000  -0.2961   0.02055   0.01524  -0.1493  0.8168  0.0233  -5.3464   0.0000   0.0000   0.0000  -0.2806
  -8.900  -0.2856   0.02020   0.01481  -0.1495  0.8151  0.0234  -5.2626   0.0000   0.0000   0.0000  -0.3003
  -8.800  -0.2769   0.01918   0.01370  -0.1498  0.8134  0.0236  -5.2080   0.0000   0.0000   0.0000  -0.3184
  -8.700  -0.2671   0.01860   0.01308  -0.1500  0.8118  0.0239  -5.1290   0.0000   0.0000   0.0000  -0.3395
  -8.600  -0.2568   0.01821   0.01266  -0.1502  0.8103  0.0241  -5.0404   0.0000   0.0000   0.0000  -0.3634
  -8.500  -0.2462   0.01790   0.01233  -0.1503  0.8090  0.0243  -4.9485   0.0000   0.0000   0.0000  -0.3899
  -8.400  -0.2355   0.01764   0.01202  -0.1505  0.8077  0.0245  -4.8559   0.0000   0.0000   0.0000  -0.4192
  -8.300  -0.2248   0.01738   0.01173  -0.1506  0.8062  0.0247  -4.7643   0.0000   0.0000   0.0000  -0.4512
  -8.200  -0.2140   0.01711   0.01144  -0.1507  0.8046  0.0250  -4.6803   0.0000   0.0000   0.0000  -0.4865
  -8.100  -0.2032   0.01685   0.01115  -0.1508  0.8031  0.0252  -4.5986   0.0000   0.0000   0.0000  -0.5259
  -8.000  -0.1923   0.01659   0.01084  -0.1510  0.8016  0.0255  -4.5179   0.0000   0.0000   0.0000  -0.5698
  -7.900  -0.1814   0.01634   0.01054  -0.1511  0.8003  0.0257  -4.4377   0.0000   0.0000   0.0000  -0.6193
  -7.800  -0.1704   0.01608   0.01023  -0.1512  0.7990  0.0260  -4.3582   0.0000   0.0000   0.0000  -0.6755
  -7.700  -0.1593   0.01585   0.00994  -0.1513  0.7979  0.0263  -4.2787   0.0000   0.0000   0.0000  -0.7400
  -7.600  -0.1483   0.01563   0.00968  -0.1514  0.7964  0.0266  -4.1994   0.0000   0.0000   0.0000  -0.8135
  -7.500  -0.1372   0.01543   0.00944  -0.1515  0.7949  0.0269  -4.1196   0.0000   0.0000   0.0000  -0.8996
  -7.400  -0.1260   0.01527   0.00922  -0.1516  0.7934  0.0271  -4.0392   0.0000   0.0000   0.0000  -1.0020
  -7.300  -0.1148   0.01508   0.00898  -0.1517  0.7920  0.0273  -3.9637   0.0000   0.0000   0.0000  -1.1241
  -7.200  -0.1043   0.01459   0.00847  -0.1519  0.7907  0.0278  -3.9032   0.0000   0.0000   0.0000  -1.2619
  -7.100  -0.0934   0.01433   0.00819  -0.1520  0.7894  0.0281  -3.8309   0.0000   0.0000   0.0000  -1.4399
  -7.000  -0.0822   0.01413   0.00798  -0.1521  0.7882  0.0284  -3.7566   0.0000   0.0000   0.0000  -1.6701
  -6.900  -0.0712   0.01394   0.00779  -0.1522  0.7865  0.0287  -3.6837   0.0000   0.0000   0.0000  -1.9675
  -6.800  -0.0600   0.01376   0.00760  -0.1523  0.7849  0.0290  -3.6112   0.0000   0.0000   0.0000  -2.3788
  -6.700  -0.0488   0.01359   0.00741  -0.1524  0.7834  0.0294  -3.5395   0.0000   0.0000   0.0000  -2.9828
  -6.600  -0.0375   0.01342   0.00722  -0.1525  0.7820  0.0297  -3.4685   0.0000   0.0000   0.0000  -3.9550
  -6.500  -0.0262   0.01326   0.00702  -0.1526  0.7808  0.0301  -3.3983   0.0000   0.0000   0.0000  -5.7773
  -6.400  -0.0148   0.01311   0.00683  -0.1527  0.7796  0.0305  -3.3286   0.0000   0.0000   0.0000  -10.4288
  -6.300  -0.0033   0.01297   0.00664  -0.1528  0.7785  0.0308  -3.2591   0.0000   0.0000   0.0000  -47.4273
  -6.200   0.0080   0.01283   0.00649  -0.1529  0.7770  0.0312  -3.1903   0.0000   0.0000   0.0000  20.0728
  -6.100   0.0193   0.01272   0.00635  -0.1529  0.7754  0.0315  -3.1206   0.0000   0.0000   0.0000   8.4080
  -6.000   0.0303   0.01239   0.00603  -0.1531  0.7739  0.0321  -3.0564   0.0000   0.0000   0.0000   5.4532
  -5.900   0.0417   0.01222   0.00586  -0.1532  0.7725  0.0327  -2.9854   0.0000   0.0000   0.0000   4.0400
  -5.800   0.0531   0.01210   0.00573  -0.1534  0.7712  0.0333  -2.9141   0.0000   0.0000   0.0000   3.2237
  -5.700   0.0646   0.01198   0.00559  -0.1535  0.7701  0.0339  -2.8440   0.0000   0.0000   0.0000   2.6940
  -5.600   0.0762   0.01187   0.00545  -0.1536  0.7690  0.0345  -2.7754   0.0000   0.0000   0.0000   2.3227
  -5.500   0.0876   0.01175   0.00531  -0.1537  0.7676  0.0351  -2.7088   0.0000   0.0000   0.0000   2.0526
  -5.400   0.0991   0.01164   0.00518  -0.1538  0.7662  0.0357  -2.6427   0.0000   0.0000   0.0000   1.8444
  -5.300   0.1105   0.01147   0.00500  -0.1539  0.7647  0.0363  -2.5841   0.0000   0.0000   0.0000   1.6799
  -5.200   0.1219   0.01128   0.00482  -0.1540  0.7633  0.0372  -2.5254   0.0000   0.0000   0.0000   1.5465
  -5.100   0.1334   0.01116   0.00469  -0.1542  0.7620  0.0381  -2.4648   0.0000   0.0000   0.0000   1.4346
  -5.000   0.1450   0.01106   0.00457  -0.1543  0.7608  0.0392  -2.4053   0.0000   0.0000   0.0000   1.3400
  -4.900   0.1567   0.01097   0.00445  -0.1544  0.7597  0.0403  -2.3471   0.0000   0.0000   0.0000   1.2588
  -4.800   0.1683   0.01082   0.00429  -0.1545  0.7585  0.0418  -2.2905   0.0000   0.0000   0.0000   1.1897
  -4.700   0.1797   0.01070   0.00419  -0.1546  0.7569  0.0434  -2.2318   0.0000   0.0000   0.0000   1.1302
  -4.600   0.1912   0.01061   0.00409  -0.1547  0.7554  0.0454  -2.1741   0.0000   0.0000   0.0000   1.0772
  -4.500   0.2028   0.01048   0.00398  -0.1549  0.7539  0.0479  -2.1166   0.0000   0.0000   0.0000   1.0304
  -4.400   0.2144   0.01040   0.00389  -0.1550  0.7524  0.0508  -2.0587   0.0000   0.0000   0.0000   0.9882
  -4.300   0.2260   0.01029   0.00379  -0.1551  0.7511  0.0540  -2.0007   0.0000   0.0000   0.0000   0.9504
  -4.200   0.2377   0.01021   0.00370  -0.1552  0.7499  0.0576  -1.9442   0.0000   0.0000   0.0000   0.9161
  -4.100   0.2494   0.01014   0.00362  -0.1553  0.7487  0.0614  -1.8917   0.0000   0.0000   0.0000   0.8850
  -4.000   0.2608   0.01003   0.00354  -0.1554  0.7470  0.0654  -1.8402   0.0000   0.0000   0.0000   0.8573
  -3.900   0.2723   0.00995   0.00347  -0.1555  0.7453  0.0697  -1.7884   0.0000   0.0000   0.0000   0.8317
  -3.800   0.2838   0.00986   0.00339  -0.1556  0.7438  0.0744  -1.7361   0.0000   0.0000   0.0000   0.8081
  -3.700   0.2954   0.00978   0.00332  -0.1558  0.7423  0.0796  -1.6837   0.0000   0.0000   0.0000   0.7863
  -3.600   0.3071   0.00970   0.00326  -0.1559  0.7410  0.0855  -1.6313   0.0000   0.0000   0.0000   0.7660
  -3.500   0.3188   0.00964   0.00320  -0.1560  0.7398  0.0920  -1.5790   0.0000   0.0000   0.0000   0.7472
  -3.400   0.3305   0.00958   0.00314  -0.1562  0.7386  0.0989  -1.5269   0.0000   0.0000   0.0000   0.7297
  -3.300   0.3419   0.00950   0.00310  -0.1562  0.7370  0.1064  -1.4759   0.0000   0.0000   0.0000   0.7137
  -3.200   0.3534   0.00943   0.00306  -0.1564  0.7354  0.1146  -1.4249   0.0000   0.0000   0.0000   0.6987
  -3.100   0.3650   0.00936   0.00303  -0.1565  0.7339  0.1238  -1.3741   0.0000   0.0000   0.0000   0.6846
  -3.000   0.3766   0.00929   0.00299  -0.1566  0.7324  0.1337  -1.3235   0.0000   0.0000   0.0000   0.6712
  -2.900   0.3883   0.00924   0.00295  -0.1567  0.7311  0.1436  -1.2732   0.0000   0.0000   0.0000   0.6587
  -2.800   0.4000   0.00918   0.00290  -0.1569  0.7298  0.1537  -1.2233   0.0000   0.0000   0.0000   0.6468
  -2.700   0.4117   0.00913   0.00287  -0.1570  0.7287  0.1644  -1.1736   0.0000   0.0000   0.0000   0.6356
  -2.600   0.4231   0.00907   0.00285  -0.1571  0.7269  0.1757  -1.1252   0.0000   0.0000   0.0000   0.6252
  -2.500   0.4346   0.00901   0.00283  -0.1572  0.7252  0.1875  -1.0771   0.0000   0.0000   0.0000   0.6153
  -2.400   0.4461   0.00895   0.00281  -0.1573  0.7234  0.1997  -1.0323   0.0000   0.0000   0.0000   0.6059
  -2.300   0.4577   0.00889   0.00278  -0.1574  0.7218  0.2123  -0.9887   0.0000   0.0000   0.0000   0.5969
  -2.200   0.4693   0.00884   0.00275  -0.1575  0.7203  0.2251  -0.9455   0.0000   0.0000   0.0000   0.5884
  -2.100   0.4810   0.00879   0.00273  -0.1577  0.7189  0.2380  -0.9025   0.0000   0.0000   0.0000   0.5802
  -2.000   0.4926   0.00875   0.00271  -0.1578  0.7173  0.2500  -0.8603   0.0000   0.0000   0.0000   0.5725
  -1.900   0.5040   0.00870   0.00270  -0.1579  0.7154  0.2618  -0.8300   0.0000   0.0000   0.0000   0.5651
  -1.800   0.5155   0.00865   0.00269  -0.1580  0.7136  0.2745  -0.8379   0.0000   0.0000   0.0000   0.5581
  -1.700   0.5271   0.00861   0.00268  -0.1581  0.7120  0.2883  -0.8458   0.0000   0.0000   0.0000   0.5513
  -1.600   0.5387   0.00857   0.00266  -0.1582  0.7105  0.3023  -0.8538   0.0000   0.0000   0.0000   0.5448
  -1.500   0.5504   0.00853   0.00264  -0.1583  0.7091  0.3161  -0.8619   0.0000   0.0000   0.0000   0.5386
  -1.400   0.5621   0.00850   0.00263  -0.1585  0.7078  0.3311  -0.8700   0.0000   0.0000   0.0000   0.5327
  -1.300   0.5735   0.00845   0.00264  -0.1585  0.7060  0.3476  -0.8778   0.0000   0.0000   0.0000   0.5270
  -1.100   0.5964   0.00835   0.00264  -0.1587  0.7023  0.3812  -0.8937   0.0000   0.0000   0.0000   0.5163
  -1.000   0.6080   0.00831   0.00263  -0.1588  0.7006  0.3981  -0.9017   0.0000   0.0000   0.0000   0.5112
  -0.900   0.6197   0.00828   0.00263  -0.1590  0.6991  0.4148  -0.9106   0.0000   0.0000   0.0000   0.5063
  -0.800   0.6314   0.00826   0.00262  -0.1591  0.6978  0.4312  -0.9199   0.0000   0.0000   0.0000   0.5016
  -0.700   0.6428   0.00821   0.00263  -0.1592  0.6959  0.4485  -0.9289   0.0000   0.0000   0.0000   0.4971
  -0.600   0.6541   0.00817   0.00265  -0.1592  0.6938  0.4672  -0.9380   0.0000   0.0000   0.0000   0.4927
  -0.500   0.6656   0.00812   0.00265  -0.1593  0.6919  0.4862  -0.9471   0.0000   0.0000   0.0000   0.4885
  -0.400   0.6771   0.00809   0.00265  -0.1594  0.6900  0.5055  -0.9563   0.0000   0.0000   0.0000   0.4844
  -0.300   0.6886   0.00804   0.00265  -0.1595  0.6883  0.5257  -0.9658   0.0000   0.0000   0.0000   0.4804
  -0.200   0.7001   0.00801   0.00266  -0.1596  0.6865  0.5484  -0.9753   0.0000   0.0000   0.0000   0.4765
  -0.100   0.7113   0.00796   0.00268  -0.1596  0.6841  0.5713  -0.9845   0.0000   0.0000   0.0000   0.4728
   0.000   0.7226   0.00791   0.00270  -0.1596  0.6819  0.5940  -0.9939   0.0000   0.0000   0.0000   0.4692
   0.100   0.7339   0.00787   0.00271  -0.1597  0.6798  0.6162  -1.0033   0.0000   0.0000   0.0000   0.4657
   0.200   0.7452   0.00785   0.00273  -0.1597  0.6781  0.6369  -1.0127   0.0000   0.0000   0.0000   0.4623
   0.300   0.7566   0.00783   0.00274  -0.1597  0.6765  0.6574  -1.0222   0.0000   0.0000   0.0000   0.4589
   0.400   0.7677   0.00780   0.00278  -0.1597  0.6743  0.6784  -1.0314   0.0000   0.0000   0.0000   0.4557
   0.500   0.7787   0.00778   0.00281  -0.1597  0.6721  0.6979  -1.0407   0.0000   0.0000   0.0000   0.4525
   0.600   0.7898   0.00776   0.00283  -0.1596  0.6700  0.7160  -1.0500   0.0000   0.0000   0.0000   0.4495
   0.700   0.8009   0.00775   0.00285  -0.1596  0.6682  0.7329  -1.0593   0.0000   0.0000   0.0000   0.4465
   0.800   0.8120   0.00776   0.00287  -0.1595  0.6665  0.7481  -1.0688   0.0000   0.0000   0.0000   0.4435
   0.900   0.8230   0.00776   0.00289  -0.1595  0.6643  0.7613  -1.0794   0.0000   0.0000   0.0000   0.4407
   1.000   0.8339   0.00775   0.00292  -0.1594  0.6618  0.7732  -1.0900   0.0000   0.0000   0.0000   0.4379
   1.100   0.8448   0.00774   0.00294  -0.1593  0.6594  0.7843  -1.1006   0.0000   0.0000   0.0000   0.4352
   1.200   0.8557   0.00775   0.00294  -0.1592  0.6572  0.7950  -1.1113   0.0000   0.0000   0.0000   0.4326
   1.300   0.8665   0.00776   0.00295  -0.1591  0.6550  0.8057  -1.1219   0.0000   0.0000   0.0000   0.4300
   1.400   0.8771   0.00775   0.00298  -0.1589  0.6521  0.8162  -1.1324   0.0000   0.0000   0.0000   0.4274
   1.500   0.8876   0.00774   0.00300  -0.1587  0.6493  0.8269  -1.1432   0.0000   0.0000   0.0000   0.4250
   1.600   0.8981   0.00774   0.00301  -0.1586  0.6468  0.8380  -1.1539   0.0000   0.0000   0.0000   0.4225
   1.700   0.9085   0.00775   0.00302  -0.1583  0.6445  0.8491  -1.1647   0.0000   0.0000   0.0000   0.4201
   1.800   0.9186   0.00774   0.00305  -0.1581  0.6415  0.8600  -1.1752   0.0000   0.0000   0.0000   0.4178
   1.900   0.9285   0.00774   0.00307  -0.1578  0.6388  0.8709  -1.1857   0.0000   0.0000   0.0000   0.4155
   2.000   0.9383   0.00774   0.00308  -0.1574  0.6364  0.8824  -1.1961   0.0000   0.0000   0.0000   0.4132
   2.100   0.9479   0.00774   0.00308  -0.1570  0.6342  0.8947  -1.2065   0.0000   0.0000   0.0000   0.4110
   2.200   0.9570   0.00772   0.00311  -0.1565  0.6315  0.9079  -1.2185   0.0000   0.0000   0.0000   0.4087
   2.300   0.9654   0.00770   0.00311  -0.1559  0.6287  0.9250  -1.2299   0.0000   0.0000   0.0000   0.4065
   2.400   0.9739   0.00766   0.00310  -0.1552  0.6261  0.9512  -1.2415   0.0000   0.0000   0.0000   0.4043
   2.500   0.9867   0.00765   0.00307  -0.1555  0.6236  1.0000  -1.2561   0.0000   0.0000   0.0000   0.4024
   2.600   0.9982   0.00768   0.00310  -0.1557  0.6205  1.0000  -1.2698   0.0000   0.0000   0.0000   0.4006
   2.700   1.0096   0.00772   0.00313  -0.1558  0.6172  1.0000  -1.2835   0.0000   0.0000   0.0000   0.3988
   2.800   1.0209   0.00777   0.00315  -0.1558  0.6142  1.0000  -1.2971   0.0000   0.0000   0.0000   0.3970
   2.900   1.0322   0.00781   0.00317  -0.1559  0.6110  1.0000  -1.3107   0.0000   0.0000   0.0000   0.3953
   3.000   1.0434   0.00785   0.00320  -0.1560  0.6073  1.0000  -1.3243   0.0000   0.0000   0.0000   0.3936
   3.100   1.0545   0.00790   0.00323  -0.1560  0.6039  1.0000  -1.3379   0.0000   0.0000   0.0000   0.3919
   3.200   1.0656   0.00795   0.00326  -0.1560  0.6006  1.0000  -1.3514   0.0000   0.0000   0.0000   0.3902
   3.300   1.0767   0.00799   0.00330  -0.1561  0.5968  1.0000  -1.3651   0.0000   0.0000   0.0000   0.3886
   3.400   1.0877   0.00805   0.00333  -0.1561  0.5933  1.0000  -1.3786   0.0000   0.0000   0.0000   0.3870
   3.500   1.0986   0.00811   0.00337  -0.1561  0.5902  1.0000  -1.3921   0.0000   0.0000   0.0000   0.3855
   3.600   1.1097   0.00815   0.00341  -0.1561  0.5866  1.0000  -1.4058   0.0000   0.0000   0.0000   0.3839
   3.700   1.1206   0.00821   0.00345  -0.1561  0.5831  1.0000  -1.4194   0.0000   0.0000   0.0000   0.3824
   3.800   1.1314   0.00828   0.00349  -0.1561  0.5800  1.0000  -1.4331   0.0000   0.0000   0.0000   0.3809
   3.900   1.1424   0.00832   0.00355  -0.1561  0.5763  1.0000  -1.4472   0.0000   0.0000   0.0000   0.3795
   4.000   1.1532   0.00838   0.00359  -0.1561  0.5726  1.0000  -1.4623   0.0000   0.0000   0.0000   0.3781
   4.200   1.1746   0.00851   0.00369  -0.1560  0.5654  1.0000  -1.4930   0.0000   0.0000   0.0000   0.3753
   4.300   1.1853   0.00858   0.00375  -0.1559  0.5615  1.0000  -1.5088   0.0000   0.0000   0.0000   0.3739
   4.400   1.1957   0.00866   0.00380  -0.1559  0.5580  1.0000  -1.5244   0.0000   0.0000   0.0000   0.3725
   4.500   1.2064   0.00872   0.00386  -0.1558  0.5538  1.0000  -1.5403   0.0000   0.0000   0.0000   0.3712
   4.600   1.2168   0.00880   0.00392  -0.1557  0.5496  1.0000  -1.5560   0.0000   0.0000   0.0000   0.3699
   4.700   1.2271   0.00888   0.00398  -0.1556  0.5454  1.0000  -1.5725   0.0000   0.0000   0.0000   0.3686
   4.800   1.2376   0.00895   0.00405  -0.1555  0.5408  1.0000  -1.5893   0.0000   0.0000   0.0000   0.3673
   5.000   1.2580   0.00911   0.00418  -0.1553  0.5319  1.0000  -1.6227   0.0000   0.0000   0.0000   0.3648
   5.100   1.2681   0.00920   0.00425  -0.1552  0.5275  1.0000  -1.6393   0.0000   0.0000   0.0000   0.3635
   5.200   1.2782   0.00929   0.00432  -0.1550  0.5233  1.0000  -1.6560   0.0000   0.0000   0.0000   0.3623
   5.300   1.2884   0.00938   0.00440  -0.1549  0.5188  1.0000  -1.6749   0.0000   0.0000   0.0000   0.3611
   5.500   1.3084   0.00956   0.00456  -0.1546  0.5100  1.0000  -1.7143   0.0000   0.0000   0.0000   0.3588
   5.600   1.3181   0.00967   0.00465  -0.1544  0.5055  1.0000  -1.7338   0.0000   0.0000   0.0000   0.3576
   5.700   1.3279   0.00977   0.00473  -0.1542  0.5009  1.0000  -1.7535   0.0000   0.0000   0.0000   0.3564
   5.800   1.3377   0.00987   0.00482  -0.1540  0.4960  1.0000  -1.7732   0.0000   0.0000   0.0000   0.3553
   5.900   1.3471   0.00999   0.00492  -0.1538  0.4913  1.0000  -1.7925   0.0000   0.0000   0.0000   0.3542
   6.000   1.3569   0.01009   0.00501  -0.1536  0.4860  1.0000  -1.8123   0.0000   0.0000   0.0000   0.3530
   6.100   1.3659   0.01022   0.00511  -0.1532  0.4812  1.0000  -1.8337   0.0000   0.0000   0.0000   0.3519
   6.200   1.3756   0.01032   0.00521  -0.1531  0.4757  1.0000  -1.8585   0.0000   0.0000   0.0000   0.3508
   6.400   1.3941   0.01056   0.00542  -0.1525  0.4652  1.0000  -1.9070   0.0000   0.0000   0.0000   0.3486
   6.500   1.4028   0.01070   0.00553  -0.1521  0.4602  1.0000  -1.9307   0.0000   0.0000   0.0000   0.3476
   6.600   1.4122   0.01081   0.00564  -0.1519  0.4550  1.0000  -1.9554   0.0000   0.0000   0.0000   0.3465
   6.700   1.4209   0.01095   0.00576  -0.1515  0.4499  1.0000  -1.9793   0.0000   0.0000   0.0000   0.3454
   6.800   1.4300   0.01107   0.00587  -0.1512  0.4448  1.0000  -2.0037   0.0000   0.0000   0.0000   0.3444
   6.900   1.4384   0.01122   0.00600  -0.1508  0.4394  1.0000  -2.0274   0.0000   0.0000   0.0000   0.3433
   7.000   1.4471   0.01136   0.00613  -0.1505  0.4339  1.0000  -2.0515   0.0000   0.0000   0.0000   0.3423
   7.100   1.4551   0.01152   0.00626  -0.1500  0.4282  1.0000  -2.0749   0.0000   0.0000   0.0000   0.3413
   7.200   1.4636   0.01166   0.00639  -0.1496  0.4225  1.0000  -2.0989   0.0000   0.0000   0.0000   0.3402
   7.300   1.4713   0.01184   0.00654  -0.1491  0.4169  1.0000  -2.1219   0.0000   0.0000   0.0000   0.3392
   7.400   1.4797   0.01198   0.00667  -0.1487  0.4111  1.0000  -2.1504   0.0000   0.0000   0.0000   0.3382
   7.600   1.4950   0.01231   0.00697  -0.1476  0.3998  1.0000  -2.2102   0.0000   0.0000   0.0000   0.3361
   7.700   1.5013   0.01250   0.00713  -0.1468  0.3945  1.0000  -2.2381   0.0000   0.0000   0.0000   0.3350
   7.800   1.5089   0.01265   0.00728  -0.1463  0.3888  1.0000  -2.2682   0.0000   0.0000   0.0000   0.3340
   7.900   1.5152   0.01285   0.00746  -0.1455  0.3837  1.0000  -2.2963   0.0000   0.0000   0.0000   0.3329
   8.000   1.5225   0.01302   0.00762  -0.1449  0.3782  1.0000  -2.3262   0.0000   0.0000   0.0000   0.3319
   8.100   1.5285   0.01325   0.00782  -0.1441  0.3733  1.0000  -2.3539   0.0000   0.0000   0.0000   0.3309
   8.200   1.5359   0.01341   0.00798  -0.1436  0.3681  1.0000  -2.3842   0.0000   0.0000   0.0000   0.3299
   8.300   1.5418   0.01364   0.00819  -0.1428  0.3632  1.0000  -2.4119   0.0000   0.0000   0.0000   0.3289
   8.400   1.5489   0.01382   0.00837  -0.1422  0.3579  1.0000  -2.4419   0.0000   0.0000   0.0000   0.3279
   8.500   1.5545   0.01407   0.00859  -0.1414  0.3528  1.0000  -2.4694   0.0000   0.0000   0.0000   0.3269
   8.600   1.5612   0.01427   0.00879  -0.1407  0.3472  1.0000  -2.4988   0.0000   0.0000   0.0000   0.3259
   8.700   1.5662   0.01455   0.00904  -0.1399  0.3418  1.0000  -2.5255   0.0000   0.0000   0.0000   0.3249
   8.800   1.5726   0.01477   0.00926  -0.1392  0.3356  1.0000  -2.5545   0.0000   0.0000   0.0000   0.3239
   8.900   1.5777   0.01506   0.00952  -0.1384  0.3298  1.0000  -2.5814   0.0000   0.0000   0.0000   0.3229
   9.000   1.5829   0.01534   0.00979  -0.1376  0.3236  1.0000  -2.6092   0.0000   0.0000   0.0000   0.3220
   9.100   1.5881   0.01563   0.01006  -0.1368  0.3177  1.0000  -2.6454   0.0000   0.0000   0.0000   0.3210
   9.200   1.5926   0.01597   0.01037  -0.1359  0.3119  1.0000  -2.6829   0.0000   0.0000   0.0000   0.3200
   9.300   1.5981   0.01626   0.01064  -0.1352  0.3060  1.0000  -2.7250   0.0000   0.0000   0.0000   0.3191
   9.400   1.6023   0.01661   0.01098  -0.1343  0.3006  1.0000  -2.7645   0.0000   0.0000   0.0000   0.3182
   9.500   1.6079   0.01691   0.01127  -0.1336  0.2948  1.0000  -2.8174   0.0000   0.0000   0.0000   0.3173
   9.600   1.6125   0.01727   0.01161  -0.1328  0.2896  1.0000  -2.8699   0.0000   0.0000   0.0000   0.3164
   9.700   1.6176   0.01760   0.01193  -0.1321  0.2840  1.0000  -2.9246   0.0000   0.0000   0.0000   0.3155
   9.800   1.6223   0.01796   0.01228  -0.1313  0.2787  1.0000  -2.9782   0.0000   0.0000   0.0000   0.3146
   9.900   1.6269   0.01833   0.01264  -0.1306  0.2733  1.0000  -3.0316   0.0000   0.0000   0.0000   0.3137
  10.000   1.6316   0.01871   0.01300  -0.1299  0.2683  1.0000  -3.0860   0.0000   0.0000   0.0000   0.3129
  10.100   1.6358   0.01912   0.01339  -0.1291  0.2633  1.0000  -3.1387   0.0000   0.0000   0.0000   0.3120
  10.200   1.6405   0.01950   0.01376  -0.1284  0.2586  1.0000  -3.1936   0.0000   0.0000   0.0000   0.3112
  10.300   1.6445   0.01993   0.01418  -0.1276  0.2537  1.0000  -3.2462   0.0000   0.0000   0.0000   0.3103
  10.400   1.6490   0.02034   0.01458  -0.1269  0.2488  1.0000  -3.3011   0.0000   0.0000   0.0000   0.3095
  10.500   1.6525   0.02081   0.01504  -0.1261  0.2438  1.0000  -3.3527   0.0000   0.0000   0.0000   0.3087
  10.600   1.6569   0.02124   0.01546  -0.1255  0.2386  1.0000  -3.4077   0.0000   0.0000   0.0000   0.3079
  10.700   1.6598   0.02177   0.01596  -0.1246  0.2336  1.0000  -3.4577   0.0000   0.0000   0.0000   0.3071
  10.800   1.6643   0.02220   0.01639  -0.1240  0.2280  1.0000  -3.5134   0.0000   0.0000   0.0000   0.3063
  10.900   1.6675   0.02271   0.01688  -0.1232  0.2228  1.0000  -3.5650   0.0000   0.0000   0.0000   0.3055
  11.000   1.6708   0.02323   0.01738  -0.1225  0.2173  1.0000  -3.6173   0.0000   0.0000   0.0000   0.3047
  11.100   1.6742   0.02374   0.01789  -0.1217  0.2121  1.0000  -3.6700   0.0000   0.0000   0.0000   0.3039
  11.200   1.6767   0.02433   0.01845  -0.1209  0.2070  1.0000  -3.7195   0.0000   0.0000   0.0000   0.3031
  11.300   1.6804   0.02484   0.01895  -0.1203  0.2019  1.0000  -3.7738   0.0000   0.0000   0.0000   0.3024
  11.400   1.6828   0.02543   0.01952  -0.1195  0.1971  1.0000  -3.8237   0.0000   0.0000   0.0000   0.3016
  11.500   1.6860   0.02598   0.02007  -0.1188  0.1921  1.0000  -3.8765   0.0000   0.0000   0.0000   0.3009
  11.600   1.6885   0.02658   0.02065  -0.1180  0.1877  1.0000  -3.9272   0.0000   0.0000   0.0000   0.3001
  11.700   1.6913   0.02716   0.02122  -0.1173  0.1829  1.0000  -3.9789   0.0000   0.0000   0.0000   0.2994
  11.800   1.6940   0.02776   0.02181  -0.1166  0.1785  1.0000  -4.0307   0.0000   0.0000   0.0000   0.2986
  11.900   1.6963   0.02839   0.02243  -0.1159  0.1738  1.0000  -4.0811   0.0000   0.0000   0.0000   0.2979
  12.000   1.6991   0.02899   0.02302  -0.1152  0.1692  1.0000  -4.1337   0.0000   0.0000   0.0000   0.2972
  12.200   1.7036   0.03028   0.02430  -0.1138  0.1603  1.0000  -4.2351   0.0000   0.0000   0.0000   0.2958
  12.300   1.7050   0.03099   0.02499  -0.1130  0.1562  1.0000  -4.2827   0.0000   0.0000   0.0000   0.2951
  12.400   1.7074   0.03163   0.02563  -0.1123  0.1519  1.0000  -4.3342   0.0000   0.0000   0.0000   0.2944
  12.500   1.7086   0.03237   0.02636  -0.1116  0.1481  1.0000  -4.3814   0.0000   0.0000   0.0000   0.2937
  12.600   1.7107   0.03305   0.02703  -0.1109  0.1440  1.0000  -4.4320   0.0000   0.0000   0.0000   0.2930
  12.700   1.7118   0.03381   0.02779  -0.1102  0.1405  1.0000  -4.4791   0.0000   0.0000   0.0000   0.2923
  12.800   1.7140   0.03449   0.02847  -0.1095  0.1365  1.0000  -4.5308   0.0000   0.0000   0.0000   0.2917
  12.900   1.7151   0.03528   0.02924  -0.1088  0.1329  1.0000  -4.5780   0.0000   0.0000   0.0000   0.2910
  13.000   1.7170   0.03600   0.02996  -0.1082  0.1291  1.0000  -4.6287   0.0000   0.0000   0.0000   0.2904
  13.100   1.7179   0.03681   0.03077  -0.1075  0.1257  1.0000  -4.6756   0.0000   0.0000   0.0000   0.2897
  13.200   1.7196   0.03756   0.03152  -0.1069  0.1220  1.0000  -4.7256   0.0000   0.0000   0.0000   0.2891
  13.300   1.7203   0.03840   0.03236  -0.1062  0.1187  1.0000  -4.7715   0.0000   0.0000   0.0000   0.2884
  13.400   1.7218   0.03918   0.03314  -0.1056  0.1152  1.0000  -4.8214   0.0000   0.0000   0.0000   0.2878
  13.500   1.7223   0.04006   0.03401  -0.1050  0.1120  1.0000  -4.8665   0.0000   0.0000   0.0000   0.2872
  13.600   1.7237   0.04087   0.03482  -0.1044  0.1087  1.0000  -4.9160   0.0000   0.0000   0.0000   0.2866
  13.800   1.7253   0.04261   0.03657  -0.1032  0.1026  1.0000  -5.0103   0.0000   0.0000   0.0000   0.2854
  13.900   1.7256   0.04355   0.03750  -0.1026  0.0997  1.0000  -5.0551   0.0000   0.0000   0.0000   0.2849
  14.000   1.7269   0.04441   0.03837  -0.1021  0.0969  1.0000  -5.1044   0.0000   0.0000   0.0000   0.2843
  14.100   1.7274   0.04534   0.03930  -0.1016  0.0941  1.0000  -5.1507   0.0000   0.0000   0.0000   0.2838
  14.200   1.7281   0.04626   0.04022  -0.1011  0.0916  1.0000  -5.1977   0.0000   0.0000   0.0000   0.2832
  14.300   1.7290   0.04717   0.04114  -0.1006  0.0889  1.0000  -5.2456   0.0000   0.0000   0.0000   0.2827
  14.500   1.7303   0.04905   0.04304  -0.0996  0.0843  1.0000  -5.3393   0.0000   0.0000   0.0000   0.2816
  14.600   1.7306   0.05003   0.04403  -0.0991  0.0819  1.0000  -5.3852   0.0000   0.0000   0.0000   0.2811
  14.700   1.7309   0.05104   0.04505  -0.0986  0.0799  1.0000  -5.4305   0.0000   0.0000   0.0000   0.2806
  14.800   1.7316   0.05200   0.04603  -0.0982  0.0777  1.0000  -5.4782   0.0000   0.0000   0.0000   0.2801
  14.900   1.7315   0.05306   0.04709  -0.0978  0.0757  1.0000  -5.5222   0.0000   0.0000   0.0000   0.2796
  15.000   1.7318   0.05409   0.04814  -0.0974  0.0739  1.0000  -5.5677   0.0000   0.0000   0.0000   0.2791
  15.100   1.7325   0.05509   0.04915  -0.0970  0.0719  1.0000  -5.6152   0.0000   0.0000   0.0000   0.2787
  15.200   1.7321   0.05621   0.05027  -0.0966  0.0701  1.0000  -5.6579   0.0000   0.0000   0.0000   0.2782
  15.300   1.7322   0.05728   0.05137  -0.0962  0.0684  1.0000  -5.7028   0.0000   0.0000   0.0000   0.2778
  15.400   1.7326   0.05833   0.05243  -0.0959  0.0665  1.0000  -5.7492   0.0000   0.0000   0.0000   0.2773
  15.500   1.7319   0.05950   0.05361  -0.0955  0.0649  1.0000  -5.7906   0.0000   0.0000   0.0000   0.2769
  15.600   1.7315   0.06064   0.05477  -0.0952  0.0634  1.0000  -5.8332   0.0000   0.0000   0.0000   0.2765
  15.700   1.7319   0.06170   0.05586  -0.0949  0.0617  1.0000  -5.8795   0.0000   0.0000   0.0000   0.2760
  15.800   1.7313   0.06288   0.05705  -0.0945  0.0600  1.0000  -5.9214   0.0000   0.0000   0.0000   0.2756
  15.900   1.7301   0.06414   0.05833  -0.0942  0.0586  1.0000  -5.9600   0.0000   0.0000   0.0000   0.2752
  16.000   1.7304   0.06524   0.05945  -0.0940  0.0571  1.0000  -6.0061   0.0000   0.0000   0.0000   0.2749
  16.100   1.7298   0.06645   0.06068  -0.0937  0.0555  1.0000  -6.0479   0.0000   0.0000   0.0000   0.2745
  16.200   1.7283   0.06778   0.06202  -0.0934  0.0542  1.0000  -6.0849   0.0000   0.0000   0.0000   0.2741
  16.300   1.7281   0.06897   0.06323  -0.0932  0.0528  1.0000  -6.1284   0.0000   0.0000   0.0000   0.2738
  16.400   1.7276   0.07018   0.06448  -0.0930  0.0513  1.0000  -6.1708   0.0000   0.0000   0.0000   0.2734
  16.500   1.7264   0.07151   0.06581  -0.0928  0.0500  1.0000  -6.2091   0.0000   0.0000   0.0000   0.2731
  16.600   1.7248   0.07289   0.06721  -0.0926  0.0487  1.0000  -6.2455   0.0000   0.0000   0.0000   0.2728
  16.700   1.7244   0.07412   0.06848  -0.0925  0.0474  1.0000  -6.2879   0.0000   0.0000   0.0000   0.2725
  16.800   1.7230   0.07548   0.06985  -0.0923  0.0461  1.0000  -6.3255   0.0000   0.0000   0.0000   0.2722
  16.900   1.7208   0.07696   0.07134  -0.0922  0.0449  1.0000  -6.3585   0.0000   0.0000   0.0000   0.2719
  17.000   1.7193   0.07833   0.07274  -0.0920  0.0438  1.0000  -6.3953   0.0000   0.0000   0.0000   0.2716
  17.100   1.7180   0.07970   0.07414  -0.0919  0.0426  1.0000  -6.4328   0.0000   0.0000   0.0000   0.2714
  17.200   1.7159   0.08116   0.07562  -0.0918  0.0415  1.0000  -6.4663   0.0000   0.0000   0.0000   0.2711
  17.300   1.7129   0.08277   0.07725  -0.0918  0.0405  1.0000  -6.4947   0.0000   0.0000   0.0000   0.2709
  17.400   1.7112   0.08421   0.07872  -0.0917  0.0395  1.0000  -6.5298   0.0000   0.0000   0.0000   0.2707
  17.500   1.7096   0.08566   0.08020  -0.0917  0.0384  1.0000  -6.5650   0.0000   0.0000   0.0000   0.2705
  17.600   1.7073   0.08720   0.08176  -0.0917  0.0374  1.0000  -6.5966   0.0000   0.0000   0.0000   0.2703
  17.700   1.7040   0.08889   0.08347  -0.0917  0.0366  1.0000  -6.6228   0.0000   0.0000   0.0000   0.2702
  17.800   1.7013   0.09050   0.08511  -0.0917  0.0357  1.0000  -6.6518   0.0000   0.0000   0.0000   0.2700
  17.900   1.6999   0.09195   0.08660  -0.0918  0.0348  1.0000  -6.6875   0.0000   0.0000   0.0000   0.2698
  18.000   1.6978   0.09349   0.08817  -0.0918  0.0339  1.0000  -6.7194   0.0000   0.0000   0.0000   0.2697
  18.100   1.6947   0.09519   0.08989  -0.0920  0.0331  1.0000  -6.7458   0.0000   0.0000   0.0000   0.2696
  18.200   1.6910   0.09696   0.09168  -0.0921  0.0323  1.0000  -6.7688   0.0000   0.0000   0.0000   0.2695
  18.300   1.6889   0.09856   0.09332  -0.0922  0.0316  1.0000  -6.7993   0.0000   0.0000   0.0000   0.2694
  18.400   1.6870   0.10009   0.09488  -0.0924  0.0307  1.0000  -6.8361   0.0000   0.0000   0.0000   0.2693
  18.500   1.6842   0.10175   0.09657  -0.0925  0.0300  1.0000  -6.8705   0.0000   0.0000   0.0000   0.2693
  18.600   1.6810   0.10348   0.09833  -0.0927  0.0293  1.0000  -6.9017   0.0000   0.0000   0.0000   0.2692
  18.700   1.6769   0.10535   0.10022  -0.0930  0.0287  1.0000  -6.9272   0.0000   0.0000   0.0000   0.2692
  18.800   1.6740   0.10706   0.10196  -0.0932  0.0281  1.0000  -6.9598   0.0000   0.0000   0.0000   0.2692
  18.900   1.6720   0.10864   0.10359  -0.0935  0.0274  1.0000  -6.9979   0.0000   0.0000   0.0000   0.2692
  19.000   1.6695   0.11031   0.10529  -0.0937  0.0268  1.0000  -7.0329   0.0000   0.0000   0.0000   0.2692
  19.100   1.6664   0.11207   0.10708  -0.0941  0.0262  1.0000  -7.0637   0.0000   0.0000   0.0000   0.2692
  19.200   1.6629   0.11391   0.10895  -0.0944  0.0256  1.0000  -7.0914   0.0000   0.0000   0.0000   0.2693
  19.300   1.6587   0.11587   0.11093  -0.0948  0.0252  1.0000  -7.1139   0.0000   0.0000   0.0000   0.2694
  19.400   1.6557   0.11764   0.11274  -0.0952  0.0247  1.0000  -7.1441   0.0000   0.0000   0.0000   0.2695
  19.500   1.6535   0.11932   0.11446  -0.0956  0.0242  1.0000  -7.1787   0.0000   0.0000   0.0000   0.2695
  19.600   1.6508   0.12105   0.11623  -0.0960  0.0236  1.0000  -7.2106   0.0000   0.0000   0.0000   0.2696
  19.700   1.6477   0.12286   0.11807  -0.0965  0.0232  1.0000  -7.2395   0.0000   0.0000   0.0000   0.2697
  19.800   1.6444   0.12473   0.11997  -0.0970  0.0227  1.0000  -7.2659   0.0000   0.0000   0.0000   0.2699
  19.900   1.6406   0.12667   0.12194  -0.0976  0.0223  1.0000  -7.2886   0.0000   0.0000   0.0000   0.2701
  20.000   1.6363   0.12869   0.12398  -0.0982  0.0220  1.0000  -7.3077   0.0000   0.0000   0.0000   0.2704


