xflr5 v6.57

 Calculated polar for: rev_root_140

 1 1 Reynolds number fixed          Mach number fixed         

 xtrf =   1.000 (top)        1.000 (bottom)
 Mach =   0.000     Re =     0.720 e 6     Ncrit =   9.000

  alpha     CL        CD       CDp       Cm    Top Xtr Bot Xtr   Cpmin    Chinge    XCp    
 ------- -------- --------- --------- -------- ------- ------- -------- --------- ---------
 -10.000  -0.4003   0.02263   0.01794  -0.1468  0.8214  0.0197  -6.3675   0.0000   0.0000   0.0000  -0.1397
  -9.900  -0.3916   0.02187   0.01706  -0.1473  0.8196  0.0199  -6.2998   0.0000   0.0000   0.0000  -0.1491
  -9.800  -0.3843   0.02068   0.01576  -0.1478  0.8180  0.0202  -6.2502   0.0000   0.0000   0.0000  -0.1577
  -9.600  -0.3647   0.01983   0.01485  -0.1482  0.8149  0.0206  -6.0607   0.0000   0.0000   0.0000  -0.1801
  -9.500  -0.3544   0.01954   0.01454  -0.1484  0.8131  0.0208  -5.9591   0.0000   0.0000   0.0000  -0.1928
  -9.400  -0.3440   0.01927   0.01424  -0.1486  0.8115  0.0210  -5.8583   0.0000   0.0000   0.0000  -0.2063
  -9.300  -0.3335   0.01899   0.01393  -0.1488  0.8099  0.0212  -5.7596   0.0000   0.0000   0.0000  -0.2208
  -9.200  -0.3231   0.01870   0.01358  -0.1490  0.8086  0.0214  -5.6638   0.0000   0.0000   0.0000  -0.2362
  -9.100  -0.3126   0.01838   0.01320  -0.1492  0.8073  0.0215  -5.5707   0.0000   0.0000   0.0000  -0.2527
  -9.000  -0.3021   0.01806   0.01284  -0.1493  0.8056  0.0217  -5.4781   0.0000   0.0000   0.0000  -0.2704
  -8.900  -0.2915   0.01775   0.01248  -0.1495  0.8040  0.0219  -5.3864   0.0000   0.0000   0.0000  -0.2894
  -8.800  -0.2809   0.01743   0.01212  -0.1496  0.8024  0.0221  -5.2954   0.0000   0.0000   0.0000  -0.3099
  -8.700  -0.2702   0.01713   0.01176  -0.1498  0.8010  0.0223  -5.2050   0.0000   0.0000   0.0000  -0.3321
  -8.600  -0.2595   0.01684   0.01141  -0.1499  0.7996  0.0225  -5.1146   0.0000   0.0000   0.0000  -0.3563
  -8.500  -0.2486   0.01657   0.01107  -0.1501  0.7984  0.0227  -5.0241   0.0000   0.0000   0.0000  -0.3828
  -8.400  -0.2377   0.01631   0.01076  -0.1502  0.7970  0.0229  -4.9335   0.0000   0.0000   0.0000  -0.4119
  -8.300  -0.2268   0.01607   0.01047  -0.1503  0.7954  0.0231  -4.8453   0.0000   0.0000   0.0000  -0.4439
  -8.200  -0.2158   0.01585   0.01021  -0.1505  0.7939  0.0232  -4.7613   0.0000   0.0000   0.0000  -0.4794
  -8.100  -0.2046   0.01567   0.00998  -0.1506  0.7925  0.0234  -4.6764   0.0000   0.0000   0.0000  -0.5190
  -8.000  -0.1944   0.01511   0.00937  -0.1507  0.7911  0.0236  -4.6093   0.0000   0.0000   0.0000  -0.5597
  -7.900  -0.1839   0.01472   0.00894  -0.1509  0.7899  0.0239  -4.5324   0.0000   0.0000   0.0000  -0.6065
  -7.800  -0.1729   0.01446   0.00866  -0.1510  0.7888  0.0242  -4.4485   0.0000   0.0000   0.0000  -0.6609
  -7.700  -0.1619   0.01425   0.00844  -0.1512  0.7875  0.0244  -4.3626   0.0000   0.0000   0.0000  -0.7232
  -7.600  -0.1508   0.01406   0.00825  -0.1513  0.7860  0.0247  -4.2760   0.0000   0.0000   0.0000  -0.7950
  -7.500  -0.1396   0.01390   0.00807  -0.1514  0.7845  0.0249  -4.1893   0.0000   0.0000   0.0000  -0.8787
  -7.400  -0.1284   0.01375   0.00790  -0.1515  0.7830  0.0252  -4.1082   0.0000   0.0000   0.0000  -0.9773
  -7.300  -0.1171   0.01359   0.00772  -0.1516  0.7816  0.0256  -4.0303   0.0000   0.0000   0.0000  -1.0952
  -7.200  -0.1059   0.01344   0.00754  -0.1517  0.7803  0.0259  -3.9537   0.0000   0.0000   0.0000  -1.2385
  -7.100  -0.0945   0.01330   0.00735  -0.1518  0.7791  0.0262  -3.8784   0.0000   0.0000   0.0000  -1.4168
  -7.000  -0.0832   0.01314   0.00717  -0.1519  0.7777  0.0265  -3.8042   0.0000   0.0000   0.0000  -1.6429
  -6.900  -0.0720   0.01299   0.00699  -0.1520  0.7762  0.0268  -3.7311   0.0000   0.0000   0.0000  -1.9395
  -6.800  -0.0606   0.01284   0.00681  -0.1521  0.7747  0.0270  -3.6584   0.0000   0.0000   0.0000  -2.3485
  -6.700  -0.0492   0.01270   0.00665  -0.1522  0.7733  0.0272  -3.5853   0.0000   0.0000   0.0000  -2.9492
  -6.600  -0.0381   0.01243   0.00635  -0.1523  0.7720  0.0275  -3.5187   0.0000   0.0000   0.0000  -3.8836
  -6.500  -0.0270   0.01217   0.00607  -0.1525  0.7707  0.0279  -3.4494   0.0000   0.0000   0.0000  -5.5984
  -6.400  -0.0156   0.01201   0.00589  -0.1526  0.7696  0.0283  -3.3760   0.0000   0.0000   0.0000  -9.8656
  -6.300  -0.0042   0.01188   0.00574  -0.1528  0.7684  0.0287  -3.3018   0.0000   0.0000   0.0000  -37.6849
  -6.200   0.0072   0.01174   0.00561  -0.1529  0.7669  0.0290  -3.2285   0.0000   0.0000   0.0000  22.1533
  -6.100   0.0186   0.01162   0.00548  -0.1530  0.7654  0.0295  -3.1559   0.0000   0.0000   0.0000   8.7241
  -6.000   0.0301   0.01151   0.00535  -0.1531  0.7640  0.0299  -3.0837   0.0000   0.0000   0.0000   5.4954
  -5.900   0.0416   0.01140   0.00523  -0.1532  0.7626  0.0304  -3.0119   0.0000   0.0000   0.0000   4.0444
  -5.800   0.0531   0.01131   0.00510  -0.1533  0.7614  0.0309  -2.9407   0.0000   0.0000   0.0000   3.2199
  -5.700   0.0647   0.01123   0.00499  -0.1534  0.7603  0.0313  -2.8698   0.0000   0.0000   0.0000   2.6879
  -5.600   0.0762   0.01105   0.00479  -0.1535  0.7592  0.0319  -2.8029   0.0000   0.0000   0.0000   2.3206
  -5.500   0.0877   0.01089   0.00463  -0.1537  0.7580  0.0326  -2.7344   0.0000   0.0000   0.0000   2.0510
  -5.400   0.0991   0.01077   0.00451  -0.1538  0.7565  0.0332  -2.6655   0.0000   0.0000   0.0000   1.8429
  -5.300   0.1107   0.01066   0.00440  -0.1539  0.7551  0.0339  -2.6033   0.0000   0.0000   0.0000   1.6773
  -5.200   0.1222   0.01057   0.00430  -0.1540  0.7537  0.0346  -2.5421   0.0000   0.0000   0.0000   1.5424
  -5.100   0.1338   0.01048   0.00419  -0.1541  0.7523  0.0354  -2.4817   0.0000   0.0000   0.0000   1.4304
  -5.000   0.1454   0.01038   0.00406  -0.1542  0.7511  0.0362  -2.4226   0.0000   0.0000   0.0000   1.3363
  -4.900   0.1570   0.01023   0.00390  -0.1544  0.7500  0.0375  -2.3634   0.0000   0.0000   0.0000   1.2565
  -4.800   0.1687   0.01015   0.00380  -0.1545  0.7488  0.0388  -2.3025   0.0000   0.0000   0.0000   1.1870
  -4.700   0.1802   0.01006   0.00372  -0.1546  0.7473  0.0403  -2.2438   0.0000   0.0000   0.0000   1.1272
  -4.600   0.1918   0.00992   0.00359  -0.1547  0.7458  0.0422  -2.1863   0.0000   0.0000   0.0000   1.0746
  -4.500   0.2033   0.00983   0.00350  -0.1548  0.7442  0.0444  -2.1269   0.0000   0.0000   0.0000   1.0278
  -4.400   0.2149   0.00973   0.00340  -0.1549  0.7428  0.0471  -2.0688   0.0000   0.0000   0.0000   0.9860
  -4.300   0.2265   0.00965   0.00333  -0.1550  0.7414  0.0503  -2.0095   0.0000   0.0000   0.0000   0.9483
  -4.200   0.2382   0.00957   0.00325  -0.1551  0.7401  0.0538  -1.9529   0.0000   0.0000   0.0000   0.9144
  -4.100   0.2499   0.00951   0.00318  -0.1553  0.7389  0.0575  -1.8998   0.0000   0.0000   0.0000   0.8833
  -4.000   0.2614   0.00943   0.00312  -0.1554  0.7374  0.0614  -1.8467   0.0000   0.0000   0.0000   0.8555
  -3.900   0.2730   0.00935   0.00305  -0.1555  0.7359  0.0653  -1.7938   0.0000   0.0000   0.0000   0.8299
  -3.800   0.2846   0.00928   0.00299  -0.1556  0.7344  0.0696  -1.7409   0.0000   0.0000   0.0000   0.8063
  -3.700   0.2962   0.00920   0.00293  -0.1557  0.7329  0.0744  -1.6880   0.0000   0.0000   0.0000   0.7847
  -3.600   0.3078   0.00912   0.00287  -0.1558  0.7316  0.0796  -1.6352   0.0000   0.0000   0.0000   0.7646
  -3.500   0.3195   0.00906   0.00281  -0.1559  0.7303  0.0855  -1.5825   0.0000   0.0000   0.0000   0.7459
  -3.400   0.3312   0.00901   0.00276  -0.1561  0.7291  0.0919  -1.5301   0.0000   0.0000   0.0000   0.7285
  -3.300   0.3428   0.00895   0.00272  -0.1562  0.7278  0.0988  -1.4782   0.0000   0.0000   0.0000   0.7123
  -3.200   0.3543   0.00888   0.00268  -0.1563  0.7263  0.1060  -1.4268   0.0000   0.0000   0.0000   0.6973
  -3.100   0.3659   0.00881   0.00265  -0.1564  0.7248  0.1138  -1.3758   0.0000   0.0000   0.0000   0.6832
  -3.000   0.3775   0.00875   0.00261  -0.1565  0.7233  0.1225  -1.3250   0.0000   0.0000   0.0000   0.6700
  -2.900   0.3891   0.00869   0.00257  -0.1567  0.7218  0.1319  -1.2746   0.0000   0.0000   0.0000   0.6575
  -2.800   0.4008   0.00864   0.00254  -0.1568  0.7204  0.1415  -1.2246   0.0000   0.0000   0.0000   0.6458
  -2.700   0.4124   0.00859   0.00250  -0.1569  0.7191  0.1513  -1.1749   0.0000   0.0000   0.0000   0.6346
  -2.600   0.4241   0.00854   0.00248  -0.1570  0.7176  0.1616  -1.1259   0.0000   0.0000   0.0000   0.6242
  -2.500   0.4355   0.00848   0.00246  -0.1571  0.7158  0.1723  -1.0775   0.0000   0.0000   0.0000   0.6143
  -2.400   0.4471   0.00842   0.00244  -0.1572  0.7140  0.1835  -1.0323   0.0000   0.0000   0.0000   0.6049
  -2.300   0.4587   0.00837   0.00241  -0.1573  0.7124  0.1952  -0.9887   0.0000   0.0000   0.0000   0.5960
  -2.200   0.4703   0.00831   0.00239  -0.1575  0.7108  0.2072  -0.9454   0.0000   0.0000   0.0000   0.5875
  -2.100   0.4819   0.00827   0.00236  -0.1576  0.7094  0.2199  -0.9025   0.0000   0.0000   0.0000   0.5794
  -2.000   0.4936   0.00824   0.00235  -0.1577  0.7081  0.2329  -0.8598   0.0000   0.0000   0.0000   0.5716
  -1.900   0.5051   0.00819   0.00234  -0.1578  0.7064  0.2451  -0.8315   0.0000   0.0000   0.0000   0.5643
  -1.800   0.5167   0.00814   0.00233  -0.1579  0.7047  0.2562  -0.8394   0.0000   0.0000   0.0000   0.5573
  -1.600   0.5398   0.00806   0.00230  -0.1582  0.7014  0.2808  -0.8553   0.0000   0.0000   0.0000   0.5441
  -1.500   0.5515   0.00802   0.00229  -0.1583  0.6999  0.2946  -0.8633   0.0000   0.0000   0.0000   0.5379
  -1.400   0.5631   0.00799   0.00228  -0.1584  0.6985  0.3084  -0.8714   0.0000   0.0000   0.0000   0.5320
  -1.300   0.5747   0.00796   0.00227  -0.1585  0.6970  0.3220  -0.8794   0.0000   0.0000   0.0000   0.5263
  -1.200   0.5862   0.00791   0.00228  -0.1586  0.6951  0.3375  -0.8873   0.0000   0.0000   0.0000   0.5209
  -1.100   0.5978   0.00786   0.00228  -0.1587  0.6933  0.3538  -0.8953   0.0000   0.0000   0.0000   0.5156
  -1.000   0.6093   0.00782   0.00228  -0.1588  0.6916  0.3704  -0.9033   0.0000   0.0000   0.0000   0.5106
  -0.900   0.6209   0.00778   0.00227  -0.1589  0.6899  0.3864  -0.9121   0.0000   0.0000   0.0000   0.5057
  -0.800   0.6325   0.00775   0.00227  -0.1590  0.6883  0.4023  -0.9213   0.0000   0.0000   0.0000   0.5010
  -0.700   0.6441   0.00773   0.00227  -0.1592  0.6867  0.4183  -0.9305   0.0000   0.0000   0.0000   0.4965
  -0.600   0.6555   0.00768   0.00227  -0.1592  0.6846  0.4350  -0.9396   0.0000   0.0000   0.0000   0.4921
  -0.500   0.6670   0.00763   0.00228  -0.1593  0.6824  0.4525  -0.9487   0.0000   0.0000   0.0000   0.4879
  -0.400   0.6785   0.00759   0.00228  -0.1594  0.6804  0.4707  -0.9580   0.0000   0.0000   0.0000   0.4838
  -0.300   0.6900   0.00756   0.00228  -0.1595  0.6785  0.4889  -0.9675   0.0000   0.0000   0.0000   0.4799
  -0.100   0.7130   0.00749   0.00230  -0.1597  0.6746  0.5275  -0.9864   0.0000   0.0000   0.0000   0.4724
   0.000   0.7244   0.00744   0.00232  -0.1598  0.6725  0.5502  -0.9958   0.0000   0.0000   0.0000   0.4688
   0.100   0.7359   0.00740   0.00233  -0.1599  0.6705  0.5726  -1.0053   0.0000   0.0000   0.0000   0.4653
   0.200   0.7473   0.00736   0.00235  -0.1599  0.6686  0.5943  -1.0147   0.0000   0.0000   0.0000   0.4619
   0.300   0.7587   0.00734   0.00236  -0.1600  0.6669  0.6152  -1.0242   0.0000   0.0000   0.0000   0.4586
   0.400   0.7701   0.00732   0.00238  -0.1600  0.6651  0.6355  -1.0336   0.0000   0.0000   0.0000   0.4554
   0.500   0.7814   0.00729   0.00241  -0.1601  0.6629  0.6564  -1.0431   0.0000   0.0000   0.0000   0.4523
   0.600   0.7927   0.00726   0.00244  -0.1601  0.6607  0.6774  -1.0525   0.0000   0.0000   0.0000   0.4493
   0.700   0.8039   0.00725   0.00246  -0.1601  0.6586  0.6962  -1.0619   0.0000   0.0000   0.0000   0.4463
   0.800   0.8150   0.00724   0.00248  -0.1600  0.6566  0.7138  -1.0712   0.0000   0.0000   0.0000   0.4434
   0.900   0.8261   0.00724   0.00251  -0.1600  0.6544  0.7298  -1.0820   0.0000   0.0000   0.0000   0.4406
   1.000   0.8372   0.00723   0.00253  -0.1600  0.6517  0.7443  -1.0927   0.0000   0.0000   0.0000   0.4379
   1.100   0.8483   0.00723   0.00255  -0.1599  0.6490  0.7568  -1.1034   0.0000   0.0000   0.0000   0.4352
   1.200   0.8592   0.00723   0.00257  -0.1599  0.6465  0.7678  -1.1142   0.0000   0.0000   0.0000   0.4326
   1.300   0.8702   0.00725   0.00258  -0.1598  0.6441  0.7784  -1.1249   0.0000   0.0000   0.0000   0.4300
   1.400   0.8812   0.00725   0.00261  -0.1597  0.6412  0.7890  -1.1356   0.0000   0.0000   0.0000   0.4275
   1.500   0.8921   0.00725   0.00263  -0.1597  0.6384  0.7996  -1.1467   0.0000   0.0000   0.0000   0.4251
   1.600   0.9029   0.00726   0.00265  -0.1596  0.6359  0.8099  -1.1576   0.0000   0.0000   0.0000   0.4227
   1.700   0.9136   0.00728   0.00267  -0.1594  0.6336  0.8200  -1.1686   0.0000   0.0000   0.0000   0.4203
   1.800   0.9243   0.00728   0.00271  -0.1593  0.6309  0.8305  -1.1795   0.0000   0.0000   0.0000   0.4181
   1.900   0.9350   0.00728   0.00273  -0.1592  0.6282  0.8411  -1.1904   0.0000   0.0000   0.0000   0.4158
   2.000   0.9454   0.00729   0.00275  -0.1590  0.6257  0.8514  -1.2012   0.0000   0.0000   0.0000   0.4136
   2.200   0.9660   0.00731   0.00280  -0.1586  0.6205  0.8720  -1.2255   0.0000   0.0000   0.0000   0.4093
   2.300   0.9760   0.00731   0.00283  -0.1583  0.6176  0.8829  -1.2381   0.0000   0.0000   0.0000   0.4072
   2.400   0.9857   0.00732   0.00285  -0.1580  0.6147  0.8950  -1.2505   0.0000   0.0000   0.0000   0.4051
   2.500   0.9947   0.00732   0.00286  -0.1575  0.6120  0.9087  -1.2625   0.0000   0.0000   0.0000   0.4030
   2.600   1.0032   0.00729   0.00288  -0.1568  0.6086  0.9268  -1.2741   0.0000   0.0000   0.0000   0.4009
   2.700   1.0116   0.00725   0.00286  -0.1561  0.6052  0.9560  -1.2857   0.0000   0.0000   0.0000   0.3988
   2.800   1.0237   0.00727   0.00286  -0.1564  0.6020  1.0000  -1.3000   0.0000   0.0000   0.0000   0.3971
   2.900   1.0352   0.00730   0.00289  -0.1565  0.5982  1.0000  -1.3138   0.0000   0.0000   0.0000   0.3954
   3.000   1.0464   0.00735   0.00291  -0.1565  0.5945  1.0000  -1.3274   0.0000   0.0000   0.0000   0.3937
   3.100   1.0574   0.00741   0.00295  -0.1566  0.5913  1.0000  -1.3409   0.0000   0.0000   0.0000   0.3920
   3.200   1.0688   0.00745   0.00298  -0.1566  0.5877  1.0000  -1.3546   0.0000   0.0000   0.0000   0.3904
   3.300   1.0799   0.00750   0.00302  -0.1567  0.5842  1.0000  -1.3683   0.0000   0.0000   0.0000   0.3888
   3.400   1.0909   0.00757   0.00306  -0.1567  0.5810  1.0000  -1.3818   0.0000   0.0000   0.0000   0.3872
   3.500   1.1020   0.00762   0.00310  -0.1567  0.5776  1.0000  -1.3955   0.0000   0.0000   0.0000   0.3856
   3.600   1.1131   0.00767   0.00314  -0.1568  0.5740  1.0000  -1.4092   0.0000   0.0000   0.0000   0.3841
   3.700   1.1239   0.00773   0.00318  -0.1568  0.5705  1.0000  -1.4227   0.0000   0.0000   0.0000   0.3826
   3.800   1.1349   0.00779   0.00322  -0.1568  0.5671  1.0000  -1.4366   0.0000   0.0000   0.0000   0.3811
   3.900   1.1458   0.00785   0.00327  -0.1568  0.5632  1.0000  -1.4506   0.0000   0.0000   0.0000   0.3797
   4.000   1.1565   0.00792   0.00332  -0.1567  0.5596  1.0000  -1.4656   0.0000   0.0000   0.0000   0.3782
   4.100   1.1673   0.00798   0.00337  -0.1567  0.5559  1.0000  -1.4810   0.0000   0.0000   0.0000   0.3768
   4.200   1.1781   0.00804   0.00342  -0.1567  0.5518  1.0000  -1.4966   0.0000   0.0000   0.0000   0.3754
   4.300   1.1885   0.00813   0.00348  -0.1566  0.5480  1.0000  -1.5122   0.0000   0.0000   0.0000   0.3741
   4.400   1.1993   0.00819   0.00353  -0.1566  0.5437  1.0000  -1.5282   0.0000   0.0000   0.0000   0.3727
   4.500   1.2098   0.00826   0.00359  -0.1565  0.5392  1.0000  -1.5439   0.0000   0.0000   0.0000   0.3714
   4.600   1.2201   0.00835   0.00366  -0.1564  0.5350  1.0000  -1.5595   0.0000   0.0000   0.0000   0.3701
   4.700   1.2307   0.00841   0.00372  -0.1564  0.5303  1.0000  -1.5764   0.0000   0.0000   0.0000   0.3688
   4.800   1.2408   0.00851   0.00378  -0.1562  0.5260  1.0000  -1.5930   0.0000   0.0000   0.0000   0.3675
   4.900   1.2514   0.00858   0.00385  -0.1562  0.5215  1.0000  -1.6099   0.0000   0.0000   0.0000   0.3662
   5.000   1.2616   0.00867   0.00392  -0.1560  0.5171  1.0000  -1.6266   0.0000   0.0000   0.0000   0.3650
   5.100   1.2717   0.00876   0.00399  -0.1559  0.5130  1.0000  -1.6433   0.0000   0.0000   0.0000   0.3638
   5.200   1.2821   0.00884   0.00406  -0.1558  0.5084  1.0000  -1.6602   0.0000   0.0000   0.0000   0.3626
   5.300   1.2919   0.00895   0.00414  -0.1556  0.5041  1.0000  -1.6793   0.0000   0.0000   0.0000   0.3614
   5.400   1.3023   0.00903   0.00422  -0.1555  0.4995  1.0000  -1.6994   0.0000   0.0000   0.0000   0.3602
   5.500   1.3122   0.00913   0.00430  -0.1554  0.4948  1.0000  -1.7191   0.0000   0.0000   0.0000   0.3590
   5.600   1.3221   0.00923   0.00438  -0.1552  0.4902  1.0000  -1.7388   0.0000   0.0000   0.0000   0.3578
   5.700   1.3319   0.00932   0.00446  -0.1550  0.4850  1.0000  -1.7585   0.0000   0.0000   0.0000   0.3567
   5.800   1.3415   0.00944   0.00456  -0.1548  0.4802  1.0000  -1.7780   0.0000   0.0000   0.0000   0.3556
   5.900   1.3514   0.00954   0.00464  -0.1546  0.4747  1.0000  -1.7979   0.0000   0.0000   0.0000   0.3544
   6.000   1.3607   0.00966   0.00474  -0.1544  0.4697  1.0000  -1.8172   0.0000   0.0000   0.0000   0.3533
   6.100   1.3704   0.00976   0.00483  -0.1542  0.4642  1.0000  -1.8407   0.0000   0.0000   0.0000   0.3522
   6.200   1.3795   0.00990   0.00494  -0.1539  0.4591  1.0000  -1.8646   0.0000   0.0000   0.0000   0.3511
   6.300   1.3893   0.01000   0.00503  -0.1537  0.4537  1.0000  -1.8895   0.0000   0.0000   0.0000   0.3500
   6.500   1.4078   0.01024   0.00524  -0.1532  0.4436  1.0000  -1.9384   0.0000   0.0000   0.0000   0.3479
   6.600   1.4165   0.01039   0.00536  -0.1528  0.4385  1.0000  -1.9622   0.0000   0.0000   0.0000   0.3468
   6.700   1.4258   0.01050   0.00547  -0.1526  0.4329  1.0000  -1.9869   0.0000   0.0000   0.0000   0.3458
   6.900   1.4434   0.01078   0.00571  -0.1519  0.4216  1.0000  -2.0351   0.0000   0.0000   0.0000   0.3437
   7.000   1.4515   0.01095   0.00585  -0.1514  0.4160  1.0000  -2.0585   0.0000   0.0000   0.0000   0.3426
   7.100   1.4605   0.01108   0.00596  -0.1511  0.4101  1.0000  -2.0832   0.0000   0.0000   0.0000   0.3416
   7.200   1.4685   0.01124   0.00610  -0.1506  0.4045  1.0000  -2.1066   0.0000   0.0000   0.0000   0.3406
   7.300   1.4770   0.01138   0.00623  -0.1503  0.3985  1.0000  -2.1308   0.0000   0.0000   0.0000   0.3396
   7.400   1.4849   0.01155   0.00637  -0.1498  0.3930  1.0000  -2.1607   0.0000   0.0000   0.0000   0.3385
   7.500   1.4931   0.01171   0.00651  -0.1493  0.3871  1.0000  -2.1914   0.0000   0.0000   0.0000   0.3375
   7.600   1.5006   0.01187   0.00666  -0.1488  0.3818  1.0000  -2.2213   0.0000   0.0000   0.0000   0.3365
   7.700   1.5078   0.01204   0.00680  -0.1481  0.3763  1.0000  -2.2507   0.0000   0.0000   0.0000   0.3355
   7.800   1.5148   0.01221   0.00696  -0.1475  0.3712  1.0000  -2.2799   0.0000   0.0000   0.0000   0.3344
   7.900   1.5220   0.01239   0.00712  -0.1469  0.3657  1.0000  -2.3095   0.0000   0.0000   0.0000   0.3334
   8.000   1.5289   0.01257   0.00729  -0.1462  0.3606  1.0000  -2.3388   0.0000   0.0000   0.0000   0.3324
   8.100   1.5359   0.01276   0.00746  -0.1456  0.3548  1.0000  -2.3682   0.0000   0.0000   0.0000   0.3314
   8.200   1.5426   0.01295   0.00764  -0.1449  0.3493  1.0000  -2.3973   0.0000   0.0000   0.0000   0.3303
   8.300   1.5488   0.01317   0.00783  -0.1442  0.3435  1.0000  -2.4258   0.0000   0.0000   0.0000   0.3293
   8.400   1.5554   0.01337   0.00802  -0.1435  0.3376  1.0000  -2.4550   0.0000   0.0000   0.0000   0.3283
   8.500   1.5609   0.01363   0.00824  -0.1427  0.3316  1.0000  -2.4823   0.0000   0.0000   0.0000   0.3273
   8.600   1.5672   0.01385   0.00844  -0.1420  0.3252  1.0000  -2.5113   0.0000   0.0000   0.0000   0.3263
   8.700   1.5726   0.01411   0.00868  -0.1411  0.3193  1.0000  -2.5387   0.0000   0.0000   0.0000   0.3253
   8.800   1.5781   0.01437   0.00892  -0.1403  0.3130  1.0000  -2.5662   0.0000   0.0000   0.0000   0.3243
   8.900   1.5837   0.01464   0.00916  -0.1396  0.3069  1.0000  -2.5941   0.0000   0.0000   0.0000   0.3234
   9.000   1.5883   0.01495   0.00944  -0.1387  0.3010  1.0000  -2.6227   0.0000   0.0000   0.0000   0.3224
   9.100   1.5943   0.01521   0.00969  -0.1380  0.2949  1.0000  -2.6621   0.0000   0.0000   0.0000   0.3214
   9.200   1.5994   0.01551   0.00997  -0.1372  0.2894  1.0000  -2.7023   0.0000   0.0000   0.0000   0.3205
   9.300   1.6049   0.01580   0.01024  -0.1365  0.2836  1.0000  -2.7449   0.0000   0.0000   0.0000   0.3196
   9.400   1.6102   0.01610   0.01053  -0.1357  0.2784  1.0000  -2.7981   0.0000   0.0000   0.0000   0.3187
   9.500   1.6152   0.01642   0.01083  -0.1349  0.2730  1.0000  -2.8520   0.0000   0.0000   0.0000   0.3177
   9.600   1.6206   0.01673   0.01113  -0.1342  0.2680  1.0000  -2.9075   0.0000   0.0000   0.0000   0.3168
   9.700   1.6253   0.01708   0.01146  -0.1335  0.2632  1.0000  -2.9613   0.0000   0.0000   0.0000   0.3160
   9.800   1.6308   0.01739   0.01177  -0.1328  0.2587  1.0000  -3.0176   0.0000   0.0000   0.0000   0.3151
   9.900   1.6356   0.01775   0.01211  -0.1321  0.2541  1.0000  -3.0723   0.0000   0.0000   0.0000   0.3142
  10.000   1.6407   0.01810   0.01245  -0.1314  0.2497  1.0000  -3.1281   0.0000   0.0000   0.0000   0.3134
  10.100   1.6453   0.01848   0.01282  -0.1306  0.2449  1.0000  -3.1829   0.0000   0.0000   0.0000   0.3125
  10.200   1.6500   0.01885   0.01318  -0.1299  0.2402  1.0000  -3.2382   0.0000   0.0000   0.0000   0.3117
  10.300   1.6542   0.01927   0.01358  -0.1292  0.2351  1.0000  -3.2918   0.0000   0.0000   0.0000   0.3108
  10.400   1.6588   0.01967   0.01397  -0.1285  0.2299  1.0000  -3.3474   0.0000   0.0000   0.0000   0.3100
  10.500   1.6623   0.02014   0.01442  -0.1277  0.2247  1.0000  -3.3991   0.0000   0.0000   0.0000   0.3092
  10.600   1.6668   0.02055   0.01481  -0.1270  0.2191  1.0000  -3.4552   0.0000   0.0000   0.0000   0.3084
  10.700   1.6704   0.02103   0.01528  -0.1262  0.2139  1.0000  -3.5077   0.0000   0.0000   0.0000   0.3075
  10.800   1.6740   0.02151   0.01574  -0.1254  0.2084  1.0000  -3.5609   0.0000   0.0000   0.0000   0.3067
  10.900   1.6776   0.02199   0.01620  -0.1247  0.2033  1.0000  -3.6145   0.0000   0.0000   0.0000   0.3059
  11.100   1.6843   0.02301   0.01719  -0.1232  0.1931  1.0000  -3.7201   0.0000   0.0000   0.0000   0.3044
  11.200   1.6872   0.02356   0.01772  -0.1224  0.1884  1.0000  -3.7714   0.0000   0.0000   0.0000   0.3036
  11.300   1.6907   0.02407   0.01822  -0.1217  0.1835  1.0000  -3.8256   0.0000   0.0000   0.0000   0.3028
  11.400   1.6939   0.02462   0.01875  -0.1210  0.1790  1.0000  -3.8784   0.0000   0.0000   0.0000   0.3021
  11.500   1.6970   0.02517   0.01929  -0.1203  0.1741  1.0000  -3.9314   0.0000   0.0000   0.0000   0.3013
  11.600   1.7001   0.02571   0.01982  -0.1196  0.1695  1.0000  -3.9848   0.0000   0.0000   0.0000   0.3005
  11.700   1.7025   0.02632   0.02041  -0.1188  0.1649  1.0000  -4.0355   0.0000   0.0000   0.0000   0.2998
  11.800   1.7057   0.02687   0.02096  -0.1181  0.1603  1.0000  -4.0894   0.0000   0.0000   0.0000   0.2991
  11.900   1.7078   0.02751   0.02158  -0.1173  0.1561  1.0000  -4.1395   0.0000   0.0000   0.0000   0.2983
  12.000   1.7106   0.02810   0.02216  -0.1166  0.1517  1.0000  -4.1924   0.0000   0.0000   0.0000   0.2976
  12.100   1.7126   0.02875   0.02280  -0.1159  0.1477  1.0000  -4.2426   0.0000   0.0000   0.0000   0.2969
  12.200   1.7151   0.02938   0.02342  -0.1152  0.1437  1.0000  -4.2945   0.0000   0.0000   0.0000   0.2962
  12.300   1.7171   0.03005   0.02408  -0.1144  0.1400  1.0000  -4.3449   0.0000   0.0000   0.0000   0.2955
  12.400   1.7195   0.03068   0.02471  -0.1138  0.1359  1.0000  -4.3969   0.0000   0.0000   0.0000   0.2948
  12.500   1.7213   0.03136   0.02538  -0.1130  0.1323  1.0000  -4.4469   0.0000   0.0000   0.0000   0.2941
  12.600   1.7232   0.03204   0.02606  -0.1123  0.1284  1.0000  -4.4974   0.0000   0.0000   0.0000   0.2934
  12.700   1.7249   0.03275   0.02675  -0.1116  0.1248  1.0000  -4.5473   0.0000   0.0000   0.0000   0.2927
  12.800   1.7265   0.03346   0.02747  -0.1109  0.1211  1.0000  -4.5970   0.0000   0.0000   0.0000   0.2920
  12.900   1.7281   0.03419   0.02819  -0.1102  0.1177  1.0000  -4.6469   0.0000   0.0000   0.0000   0.2914
  13.000   1.7296   0.03494   0.02893  -0.1096  0.1140  1.0000  -4.6963   0.0000   0.0000   0.0000   0.2907
  13.100   1.7311   0.03570   0.02968  -0.1089  0.1108  1.0000  -4.7457   0.0000   0.0000   0.0000   0.2900
  13.200   1.7324   0.03647   0.03046  -0.1082  0.1074  1.0000  -4.7947   0.0000   0.0000   0.0000   0.2894
  13.300   1.7336   0.03726   0.03124  -0.1076  0.1044  1.0000  -4.8433   0.0000   0.0000   0.0000   0.2888
  13.400   1.7350   0.03804   0.03202  -0.1070  0.1013  1.0000  -4.8930   0.0000   0.0000   0.0000   0.2881
  13.500   1.7358   0.03888   0.03285  -0.1063  0.0985  1.0000  -4.9402   0.0000   0.0000   0.0000   0.2875
  13.600   1.7375   0.03964   0.03362  -0.1057  0.0955  1.0000  -4.9915   0.0000   0.0000   0.0000   0.2869
  13.800   1.7400   0.04129   0.03528  -0.1046  0.0902  1.0000  -5.0902   0.0000   0.0000   0.0000   0.2857
  13.900   1.7408   0.04216   0.03615  -0.1040  0.0876  1.0000  -5.1381   0.0000   0.0000   0.0000   0.2851
  14.000   1.7421   0.04300   0.03699  -0.1035  0.0853  1.0000  -5.1881   0.0000   0.0000   0.0000   0.2846
  14.100   1.7436   0.04384   0.03783  -0.1029  0.0828  1.0000  -5.2387   0.0000   0.0000   0.0000   0.2840
  14.200   1.7438   0.04479   0.03879  -0.1024  0.0806  1.0000  -5.2843   0.0000   0.0000   0.0000   0.2834
  14.300   1.7456   0.04560   0.03962  -0.1019  0.0784  1.0000  -5.3366   0.0000   0.0000   0.0000   0.2829
  14.400   1.7462   0.04653   0.04055  -0.1014  0.0763  1.0000  -5.3841   0.0000   0.0000   0.0000   0.2823
  14.500   1.7466   0.04749   0.04152  -0.1009  0.0744  1.0000  -5.4304   0.0000   0.0000   0.0000   0.2818
  14.600   1.7481   0.04834   0.04238  -0.1004  0.0724  1.0000  -5.4819   0.0000   0.0000   0.0000   0.2813
  14.700   1.7484   0.04932   0.04337  -0.0999  0.0704  1.0000  -5.5281   0.0000   0.0000   0.0000   0.2808
  14.800   1.7488   0.05030   0.04436  -0.0995  0.0687  1.0000  -5.5749   0.0000   0.0000   0.0000   0.2802
  14.900   1.7499   0.05123   0.04530  -0.0990  0.0669  1.0000  -5.6248   0.0000   0.0000   0.0000   0.2797
  15.000   1.7501   0.05225   0.04634  -0.0986  0.0651  1.0000  -5.6705   0.0000   0.0000   0.0000   0.2793
  15.100   1.7501   0.05330   0.04739  -0.0982  0.0635  1.0000  -5.7158   0.0000   0.0000   0.0000   0.2788
  15.200   1.7513   0.05424   0.04835  -0.0978  0.0618  1.0000  -5.7663   0.0000   0.0000   0.0000   0.2783
  15.300   1.7516   0.05527   0.04940  -0.0974  0.0601  1.0000  -5.8128   0.0000   0.0000   0.0000   0.2778
  15.400   1.7511   0.05641   0.05054  -0.0970  0.0586  1.0000  -5.8555   0.0000   0.0000   0.0000   0.2774
  15.500   1.7520   0.05739   0.05154  -0.0967  0.0570  1.0000  -5.9053   0.0000   0.0000   0.0000   0.2769
  15.600   1.7521   0.05847   0.05264  -0.0963  0.0554  1.0000  -5.9509   0.0000   0.0000   0.0000   0.2765
  15.700   1.7511   0.05967   0.05385  -0.0959  0.0540  1.0000  -5.9915   0.0000   0.0000   0.0000   0.2761
  15.800   1.7518   0.06069   0.05490  -0.0956  0.0525  1.0000  -6.0398   0.0000   0.0000   0.0000   0.2756
  15.900   1.7517   0.06180   0.05602  -0.0953  0.0510  1.0000  -6.0850   0.0000   0.0000   0.0000   0.2752
  16.000   1.7508   0.06301   0.05724  -0.0950  0.0495  1.0000  -6.1260   0.0000   0.0000   0.0000   0.2748
  16.100   1.7504   0.06417   0.05843  -0.0947  0.0482  1.0000  -6.1696   0.0000   0.0000   0.0000   0.2744
  16.200   1.7501   0.06534   0.05961  -0.0944  0.0467  1.0000  -6.2135   0.0000   0.0000   0.0000   0.2740
  16.300   1.7491   0.06659   0.06088  -0.0941  0.0454  1.0000  -6.2539   0.0000   0.0000   0.0000   0.2737
  16.400   1.7478   0.06790   0.06220  -0.0939  0.0442  1.0000  -6.2924   0.0000   0.0000   0.0000   0.2733
  16.500   1.7475   0.06909   0.06341  -0.0937  0.0429  1.0000  -6.3366   0.0000   0.0000   0.0000   0.2729
  16.600   1.7463   0.07040   0.06474  -0.0934  0.0417  1.0000  -6.3759   0.0000   0.0000   0.0000   0.2726
  16.700   1.7445   0.07178   0.06614  -0.0932  0.0405  1.0000  -6.4120   0.0000   0.0000   0.0000   0.2723
  16.800   1.7434   0.07310   0.06747  -0.0931  0.0395  1.0000  -6.4518   0.0000   0.0000   0.0000   0.2720
  16.900   1.7426   0.07438   0.06878  -0.0929  0.0384  1.0000  -6.4929   0.0000   0.0000   0.0000   0.2717
  17.000   1.7410   0.07577   0.07020  -0.0927  0.0373  1.0000  -6.5295   0.0000   0.0000   0.0000   0.2714
  17.100   1.7386   0.07726   0.07170  -0.0926  0.0364  1.0000  -6.5623   0.0000   0.0000   0.0000   0.2711
  17.200   1.7373   0.07861   0.07308  -0.0925  0.0354  1.0000  -6.6009   0.0000   0.0000   0.0000   0.2708
  17.300   1.7362   0.07995   0.07445  -0.0924  0.0344  1.0000  -6.6401   0.0000   0.0000   0.0000   0.2706
  17.400   1.7345   0.08137   0.07589  -0.0923  0.0335  1.0000  -6.6758   0.0000   0.0000   0.0000   0.2703
  17.500   1.7318   0.08291   0.07746  -0.0922  0.0326  1.0000  -6.7070   0.0000   0.0000   0.0000   0.2701
  17.600   1.7298   0.08440   0.07897  -0.0921  0.0318  1.0000  -6.7407   0.0000   0.0000   0.0000   0.2699
  17.700   1.7285   0.08580   0.08040  -0.0921  0.0309  1.0000  -6.7784   0.0000   0.0000   0.0000   0.2696
  17.800   1.7267   0.08727   0.08190  -0.0921  0.0301  1.0000  -6.8135   0.0000   0.0000   0.0000   0.2694
  17.900   1.7241   0.08886   0.08351  -0.0921  0.0293  1.0000  -6.8439   0.0000   0.0000   0.0000   0.2693
  18.000   1.7210   0.09050   0.08517  -0.0921  0.0286  1.0000  -6.8721   0.0000   0.0000   0.0000   0.2691
  18.100   1.7194   0.09199   0.08670  -0.0922  0.0279  1.0000  -6.9070   0.0000   0.0000   0.0000   0.2690
  18.200   1.7178   0.09346   0.08820  -0.0923  0.0271  1.0000  -6.9424   0.0000   0.0000   0.0000   0.2688
  18.300   1.7154   0.09505   0.08982  -0.0923  0.0264  1.0000  -6.9792   0.0000   0.0000   0.0000   0.2686
  18.400   1.7126   0.09669   0.09148  -0.0925  0.0257  1.0000  -7.0153   0.0000   0.0000   0.0000   0.2685
  18.500   1.7092   0.09844   0.09325  -0.0926  0.0251  1.0000  -7.0470   0.0000   0.0000   0.0000   0.2685
  18.600   1.7070   0.10002   0.09487  -0.0927  0.0246  1.0000  -7.0857   0.0000   0.0000   0.0000   0.2684
  18.700   1.7047   0.10160   0.09648  -0.0929  0.0240  1.0000  -7.1242   0.0000   0.0000   0.0000   0.2683
  18.800   1.7021   0.10323   0.09815  -0.0931  0.0235  1.0000  -7.1605   0.0000   0.0000   0.0000   0.2682
  18.900   1.6991   0.10493   0.09987  -0.0933  0.0230  1.0000  -7.1937   0.0000   0.0000   0.0000   0.2682
  19.000   1.6958   0.10669   0.10166  -0.0935  0.0225  1.0000  -7.2247   0.0000   0.0000   0.0000   0.2681
  19.100   1.6920   0.10851   0.10352  -0.0938  0.0221  1.0000  -7.2527   0.0000   0.0000   0.0000   0.2682
  19.200   1.6884   0.11034   0.10537  -0.0941  0.0216  1.0000  -7.2807   0.0000   0.0000   0.0000   0.2682
  19.300   1.6862   0.11197   0.10704  -0.0944  0.0212  1.0000  -7.3181   0.0000   0.0000   0.0000   0.2682
  19.400   1.6836   0.11366   0.10877  -0.0947  0.0208  1.0000  -7.3525   0.0000   0.0000   0.0000   0.2682
  19.500   1.6807   0.11540   0.11054  -0.0951  0.0205  1.0000  -7.3850   0.0000   0.0000   0.0000   0.2682
  19.600   1.6775   0.11719   0.11237  -0.0954  0.0201  1.0000  -7.4147   0.0000   0.0000   0.0000   0.2683
  19.700   1.6741   0.11903   0.11424  -0.0959  0.0197  1.0000  -7.4428   0.0000   0.0000   0.0000   0.2684
  19.800   1.6703   0.12093   0.11617  -0.0963  0.0194  1.0000  -7.4681   0.0000   0.0000   0.0000   0.2685
  19.900   1.6663   0.12288   0.11815  -0.0968  0.0191  1.0000  -7.4909   0.0000   0.0000   0.0000   0.2687
  20.000   1.6619   0.12489   0.12019  -0.0974  0.0188  1.0000  -7.5101   0.0000   0.0000   0.0000   0.2689


