xflr5 v6.57

 Calculated polar for: wine

 1 1 Reynolds number fixed          Mach number fixed         

 xtrf =   1.000 (top)        1.000 (bottom)
 Mach =   0.000     Re =     0.320 e 6     Ncrit =   9.000

  alpha     CL        CD       CDp       Cm    Top Xtr Bot Xtr   Cpmin    Chinge    XCp    
 ------- -------- --------- --------- -------- ------- ------- -------- --------- ---------
  -8.700  -0.2459   0.04101   0.03690  -0.1350  0.8448  0.0368  -3.9282   0.0000   0.0000   0.0000  -0.3274
  -8.600  -0.2423   0.03920   0.03501  -0.1362  0.8426  0.0367  -3.9356   0.0000   0.0000   0.0000  -0.3403
  -8.500  -0.2388   0.03730   0.03299  -0.1373  0.8407  0.0366  -3.9484   0.0000   0.0000   0.0000  -0.3536
  -8.400  -0.2350   0.03540   0.03092  -0.1384  0.8390  0.0366  -3.9628   0.0000   0.0000   0.0000  -0.3679
  -8.300  -0.2305   0.03353   0.02887  -0.1394  0.8376  0.0365  -3.9759   0.0000   0.0000   0.0000  -0.3837
  -8.200  -0.2255   0.03168   0.02679  -0.1402  0.8364  0.0365  -3.9899   0.0000   0.0000   0.0000  -0.4012
  -8.100  -0.2199   0.02998   0.02486  -0.1410  0.8343  0.0365  -4.0078   0.0000   0.0000   0.0000  -0.4210
  -8.000  -0.2134   0.02846   0.02309  -0.1415  0.8325  0.0366  -4.0206   0.0000   0.0000   0.0000  -0.4439
  -7.900  -0.2060   0.02720   0.02155  -0.1419  0.8309  0.0368  -4.0224   0.0000   0.0000   0.0000  -0.4706
  -7.800  -0.1978   0.02605   0.02028  -0.1422  0.8296  0.0370  -3.9961   0.0000   0.0000   0.0000  -0.5012
  -7.700  -0.1885   0.02534   0.01952  -0.1424  0.8285  0.0372  -3.9411   0.0000   0.0000   0.0000  -0.5386
  -7.600  -0.1784   0.02497   0.01915  -0.1425  0.8275  0.0376  -3.8688   0.0000   0.0000   0.0000  -0.5832
  -7.500  -0.1682   0.02479   0.01902  -0.1425  0.8256  0.0379  -3.7898   0.0000   0.0000   0.0000  -0.6334
  -7.400  -0.1581   0.02452   0.01875  -0.1426  0.8240  0.0384  -3.7195   0.0000   0.0000   0.0000  -0.6900
  -7.300  -0.1481   0.02411   0.01827  -0.1427  0.8225  0.0388  -3.6601   0.0000   0.0000   0.0000  -0.7536
  -7.200  -0.1382   0.02356   0.01761  -0.1428  0.8212  0.0393  -3.6112   0.0000   0.0000   0.0000  -0.8259
  -7.100  -0.1282   0.02291   0.01681  -0.1430  0.8200  0.0399  -3.5700   0.0000   0.0000   0.0000  -0.9095
  -7.000  -0.1182   0.02224   0.01597  -0.1431  0.8190  0.0403  -3.5322   0.0000   0.0000   0.0000  -1.0084
  -6.900  -0.1082   0.02162   0.01518  -0.1431  0.8175  0.0407  -3.4946   0.0000   0.0000   0.0000  -1.1249
  -6.800  -0.0981   0.02109   0.01448  -0.1432  0.8158  0.0411  -3.4545   0.0000   0.0000   0.0000  -1.2663
  -6.700  -0.0877   0.02059   0.01383  -0.1432  0.8142  0.0415  -3.4098   0.0000   0.0000   0.0000  -1.4444
  -6.600  -0.0776   0.02001   0.01325  -0.1433  0.8129  0.0419  -3.3509   0.0000   0.0000   0.0000  -1.6662
  -6.500  -0.0669   0.01966   0.01289  -0.1433  0.8117  0.0423  -3.2849   0.0000   0.0000   0.0000  -1.9698
  -6.400  -0.0561   0.01937   0.01257  -0.1434  0.8106  0.0428  -3.2187   0.0000   0.0000   0.0000  -2.3979
  -6.300  -0.0451   0.01909   0.01226  -0.1434  0.8096  0.0433  -3.1534   0.0000   0.0000   0.0000  -3.0402
  -6.200  -0.0346   0.01884   0.01199  -0.1435  0.8080  0.0439  -3.0908   0.0000   0.0000   0.0000  -4.0438
  -6.100  -0.0239   0.01859   0.01168  -0.1435  0.8063  0.0446  -3.0362   0.0000   0.0000   0.0000  -5.9502
  -6.000  -0.0131   0.01832   0.01132  -0.1435  0.8048  0.0454  -2.9862   0.0000   0.0000   0.0000  -11.1051
  -5.900  -0.0019   0.01809   0.01096  -0.1435  0.8035  0.0462  -2.9379   0.0000   0.0000   0.0000  -77.4941
  -5.800   0.0087   0.01767   0.01053  -0.1435  0.8023  0.0468  -2.8838   0.0000   0.0000   0.0000  17.1937
  -5.700   0.0197   0.01740   0.01028  -0.1436  0.8013  0.0475  -2.8222   0.0000   0.0000   0.0000   7.7651
  -5.600   0.0309   0.01719   0.01005  -0.1436  0.8003  0.0482  -2.7623   0.0000   0.0000   0.0000   5.0436
  -5.500   0.0416   0.01699   0.00984  -0.1436  0.7987  0.0490  -2.7069   0.0000   0.0000   0.0000   3.8112
  -5.400   0.0523   0.01678   0.00961  -0.1436  0.7970  0.0498  -2.6533   0.0000   0.0000   0.0000   3.0773
  -5.300   0.0633   0.01657   0.00934  -0.1436  0.7955  0.0506  -2.6013   0.0000   0.0000   0.0000   2.5843
  -5.100   0.0853   0.01605   0.00876  -0.1436  0.7930  0.0523  -2.4930   0.0000   0.0000   0.0000   1.9808
  -5.000   0.0965   0.01586   0.00859  -0.1437  0.7920  0.0533  -2.4320   0.0000   0.0000   0.0000   1.7799
  -4.900   0.1079   0.01571   0.00841  -0.1437  0.7910  0.0545  -2.3725   0.0000   0.0000   0.0000   1.6181
  -4.800   0.1187   0.01559   0.00826  -0.1437  0.7894  0.0559  -2.3177   0.0000   0.0000   0.0000   1.4923
  -4.700   0.1296   0.01544   0.00807  -0.1437  0.7876  0.0571  -2.2692   0.0000   0.0000   0.0000   1.3873
  -4.600   0.1402   0.01520   0.00789  -0.1437  0.7861  0.0583  -2.2171   0.0000   0.0000   0.0000   1.3005
  -4.500   0.1513   0.01505   0.00774  -0.1437  0.7848  0.0596  -2.1644   0.0000   0.0000   0.0000   1.2229
  -4.400   0.1627   0.01490   0.00756  -0.1437  0.7836  0.0611  -2.1143   0.0000   0.0000   0.0000   1.1548
  -4.300   0.1742   0.01478   0.00737  -0.1438  0.7826  0.0626  -2.0660   0.0000   0.0000   0.0000   1.0943
  -4.200   0.1854   0.01453   0.00716  -0.1438  0.7816  0.0641  -2.0144   0.0000   0.0000   0.0000   1.0436
  -4.100   0.1961   0.01442   0.00708  -0.1438  0.7800  0.0658  -1.9629   0.0000   0.0000   0.0000   0.9996
  -4.000   0.2070   0.01434   0.00698  -0.1438  0.7782  0.0679  -1.9139   0.0000   0.0000   0.0000   0.9597
  -3.900   0.2179   0.01417   0.00683  -0.1438  0.7767  0.0699  -1.8641   0.0000   0.0000   0.0000   0.9239
  -3.800   0.2292   0.01405   0.00672  -0.1439  0.7753  0.0721  -1.8122   0.0000   0.0000   0.0000   0.8907
  -3.700   0.2407   0.01395   0.00657  -0.1439  0.7741  0.0747  -1.7625   0.0000   0.0000   0.0000   0.8599
  -3.600   0.2520   0.01377   0.00642  -0.1440  0.7730  0.0770  -1.7115   0.0000   0.0000   0.0000   0.8324
  -3.500   0.2636   0.01366   0.00629  -0.1441  0.7721  0.0801  -1.6605   0.0000   0.0000   0.0000   0.8067
  -3.400   0.2745   0.01354   0.00620  -0.1441  0.7704  0.0831  -1.6147   0.0000   0.0000   0.0000   0.7845
  -3.300   0.2853   0.01346   0.00614  -0.1441  0.7686  0.0867  -1.5700   0.0000   0.0000   0.0000   0.7639
  -3.200   0.2964   0.01334   0.00604  -0.1442  0.7670  0.0906  -1.5255   0.0000   0.0000   0.0000   0.7445
  -3.100   0.3078   0.01325   0.00594  -0.1442  0.7657  0.0953  -1.4808   0.0000   0.0000   0.0000   0.7260
  -3.000   0.3192   0.01311   0.00583  -0.1443  0.7644  0.1004  -1.4351   0.0000   0.0000   0.0000   0.7090
  -2.900   0.3308   0.01298   0.00572  -0.1444  0.7634  0.1065  -1.3897   0.0000   0.0000   0.0000   0.6930
  -2.800   0.3425   0.01286   0.00561  -0.1445  0.7624  0.1138  -1.3443   0.0000   0.0000   0.0000   0.6779
  -2.700   0.3533   0.01277   0.00557  -0.1445  0.7607  0.1221  -1.3009   0.0000   0.0000   0.0000   0.6646
  -2.600   0.3642   0.01268   0.00553  -0.1446  0.7588  0.1320  -1.2576   0.0000   0.0000   0.0000   0.6521
  -2.500   0.3754   0.01258   0.00547  -0.1446  0.7572  0.1442  -1.2136   0.0000   0.0000   0.0000   0.6400
  -2.400   0.3867   0.01246   0.00541  -0.1447  0.7558  0.1579  -1.1690   0.0000   0.0000   0.0000   0.6286
  -2.300   0.3983   0.01235   0.00534  -0.1448  0.7546  0.1739  -1.1242   0.0000   0.0000   0.0000   0.6177
  -2.200   0.4099   0.01224   0.00527  -0.1450  0.7534  0.1915  -1.0793   0.0000   0.0000   0.0000   0.6073
  -2.100   0.4216   0.01213   0.00521  -0.1451  0.7525  0.2100  -1.0357   0.0000   0.0000   0.0000   0.5975
  -2.000   0.4322   0.01207   0.00523  -0.1451  0.7505  0.2287  -0.9967   0.0000   0.0000   0.0000   0.5888
  -1.900   0.4431   0.01200   0.00523  -0.1451  0.7486  0.2485  -0.9572   0.0000   0.0000   0.0000   0.5803
  -1.700   0.4657   0.01182   0.00517  -0.1453  0.7456  0.2917  -0.8772   0.0000   0.0000   0.0000   0.5642
  -1.600   0.4773   0.01172   0.00513  -0.1454  0.7444  0.3152  -0.8372   0.0000   0.0000   0.0000   0.5566
  -1.500   0.4890   0.01162   0.00509  -0.1455  0.7433  0.3402  -0.8242   0.0000   0.0000   0.0000   0.5493
  -1.400   0.5004   0.01154   0.00507  -0.1456  0.7420  0.3661  -0.8316   0.0000   0.0000   0.0000   0.5425
  -1.300   0.5108   0.01148   0.00512  -0.1456  0.7398  0.3924  -0.8385   0.0000   0.0000   0.0000   0.5362
  -1.200   0.5217   0.01141   0.00513  -0.1456  0.7380  0.4204  -0.8460   0.0000   0.0000   0.0000   0.5301
  -1.100   0.5328   0.01132   0.00513  -0.1456  0.7365  0.4497  -0.8537   0.0000   0.0000   0.0000   0.5241
  -1.000   0.5442   0.01123   0.00511  -0.1457  0.7351  0.4804  -0.8615   0.0000   0.0000   0.0000   0.5183
  -0.900   0.5556   0.01114   0.00509  -0.1457  0.7339  0.5112  -0.8695   0.0000   0.0000   0.0000   0.5126
  -0.800   0.5670   0.01105   0.00507  -0.1457  0.7328  0.5423  -0.8777   0.0000   0.0000   0.0000   0.5072
  -0.700   0.5773   0.01101   0.00513  -0.1456  0.7308  0.5718  -0.8850   0.0000   0.0000   0.0000   0.5021
  -0.600   0.5876   0.01095   0.00518  -0.1454  0.7288  0.6012  -0.8924   0.0000   0.0000   0.0000   0.4973
  -0.500   0.5982   0.01089   0.00520  -0.1453  0.7271  0.6308  -0.9002   0.0000   0.0000   0.0000   0.4924
  -0.400   0.6090   0.01083   0.00521  -0.1451  0.7256  0.6603  -0.9082   0.0000   0.0000   0.0000   0.4877
  -0.300   0.6199   0.01077   0.00520  -0.1450  0.7243  0.6878  -0.9164   0.0000   0.0000   0.0000   0.4831
  -0.200   0.6308   0.01071   0.00519  -0.1448  0.7231  0.7137  -0.9246   0.0000   0.0000   0.0000   0.4786
  -0.100   0.6409   0.01068   0.00522  -0.1445  0.7214  0.7375  -0.9321   0.0000   0.0000   0.0000   0.4743
   0.000   0.6504   0.01066   0.00528  -0.1441  0.7192  0.7599  -0.9395   0.0000   0.0000   0.0000   0.4703
   0.100   0.6603   0.01063   0.00529  -0.1437  0.7173  0.7816  -0.9472   0.0000   0.0000   0.0000   0.4662
   0.200   0.6703   0.01058   0.00528  -0.1434  0.7157  0.8026  -0.9552   0.0000   0.0000   0.0000   0.4622
   0.300   0.6802   0.01052   0.00526  -0.1429  0.7143  0.8236  -0.9633   0.0000   0.0000   0.0000   0.4583
   0.400   0.6900   0.01046   0.00522  -0.1424  0.7131  0.8449  -0.9714   0.0000   0.0000   0.0000   0.4545
   0.500   0.6985   0.01042   0.00523  -0.1417  0.7112  0.8671  -0.9786   0.0000   0.0000   0.0000   0.4508
   0.600   0.7064   0.01038   0.00526  -0.1409  0.7090  0.8922  -0.9857   0.0000   0.0000   0.0000   0.4472
   0.700   0.7163   0.01031   0.00522  -0.1404  0.7071  0.9228  -0.9942   0.0000   0.0000   0.0000   0.4436
   0.800   0.7337   0.01023   0.00514  -0.1416  0.7055  0.9680  -1.0071   0.0000   0.0000   0.0000   0.4404
   0.900   0.7485   0.01021   0.00508  -0.1423  0.7040  1.0000  -1.0184   0.0000   0.0000   0.0000   0.4375
   1.000   0.7609   0.01021   0.00503  -0.1426  0.7027  1.0000  -1.0286   0.0000   0.0000   0.0000   0.4346
   1.100   0.7718   0.01026   0.00507  -0.1426  0.7005  1.0000  -1.0378   0.0000   0.0000   0.0000   0.4318
   1.200   0.7829   0.01029   0.00510  -0.1427  0.6982  1.0000  -1.0470   0.0000   0.0000   0.0000   0.4291
   1.300   0.7944   0.01031   0.00509  -0.1428  0.6963  1.0000  -1.0567   0.0000   0.0000   0.0000   0.4265
   1.400   0.8062   0.01032   0.00506  -0.1429  0.6946  1.0000  -1.0669   0.0000   0.0000   0.0000   0.4239
   1.500   0.8184   0.01033   0.00503  -0.1431  0.6931  1.0000  -1.0775   0.0000   0.0000   0.0000   0.4213
   1.600   0.8301   0.01036   0.00502  -0.1432  0.6914  1.0000  -1.0878   0.0000   0.0000   0.0000   0.4189
   1.700   0.8406   0.01040   0.00508  -0.1432  0.6888  1.0000  -1.0973   0.0000   0.0000   0.0000   0.4165
   1.800   0.8518   0.01043   0.00509  -0.1432  0.6866  1.0000  -1.1074   0.0000   0.0000   0.0000   0.4142
   1.900   0.8634   0.01044   0.00507  -0.1433  0.6848  1.0000  -1.1180   0.0000   0.0000   0.0000   0.4119
   2.000   0.8754   0.01045   0.00504  -0.1435  0.6831  1.0000  -1.1293   0.0000   0.0000   0.0000   0.4096
   2.100   0.8873   0.01046   0.00502  -0.1436  0.6815  1.0000  -1.1405   0.0000   0.0000   0.0000   0.4075
   2.200   0.8974   0.01051   0.00509  -0.1435  0.6787  1.0000  -1.1505   0.0000   0.0000   0.0000   0.4054
   2.300   0.9085   0.01054   0.00511  -0.1435  0.6764  1.0000  -1.1614   0.0000   0.0000   0.0000   0.4033
   2.400   0.9200   0.01055   0.00510  -0.1436  0.6744  1.0000  -1.1728   0.0000   0.0000   0.0000   0.4012
   2.500   0.9319   0.01056   0.00507  -0.1437  0.6727  1.0000  -1.1847   0.0000   0.0000   0.0000   0.3993
   2.600   0.9434   0.01059   0.00508  -0.1438  0.6707  1.0000  -1.1963   0.0000   0.0000   0.0000   0.3973
   2.700   0.9536   0.01064   0.00514  -0.1436  0.6679  1.0000  -1.2072   0.0000   0.0000   0.0000   0.3954
   2.800   0.9646   0.01066   0.00516  -0.1436  0.6655  1.0000  -1.2188   0.0000   0.0000   0.0000   0.3936
   2.900   0.9762   0.01068   0.00515  -0.1437  0.6635  1.0000  -1.2310   0.0000   0.0000   0.0000   0.3917
   3.000   0.9881   0.01069   0.00512  -0.1438  0.6617  1.0000  -1.2434   0.0000   0.0000   0.0000   0.3900
   3.100   0.9985   0.01074   0.00518  -0.1437  0.6590  1.0000  -1.2549   0.0000   0.0000   0.0000   0.3882
   3.200   1.0091   0.01077   0.00522  -0.1437  0.6562  1.0000  -1.2669   0.0000   0.0000   0.0000   0.3865
   3.300   1.0203   0.01079   0.00523  -0.1437  0.6539  1.0000  -1.2796   0.0000   0.0000   0.0000   0.3848
   3.400   1.0320   0.01081   0.00521  -0.1438  0.6519  1.0000  -1.2927   0.0000   0.0000   0.0000   0.3832
   3.500   1.0428   0.01084   0.00524  -0.1437  0.6494  1.0000  -1.3053   0.0000   0.0000   0.0000   0.3815
   3.600   1.0531   0.01089   0.00530  -0.1436  0.6463  1.0000  -1.3176   0.0000   0.0000   0.0000   0.3799
   3.700   1.0641   0.01091   0.00531  -0.1436  0.6437  1.0000  -1.3309   0.0000   0.0000   0.0000   0.3784
   3.800   1.0756   0.01093   0.00530  -0.1436  0.6416  1.0000  -1.3451   0.0000   0.0000   0.0000   0.3769
   3.900   1.0864   0.01097   0.00534  -0.1436  0.6390  1.0000  -1.3589   0.0000   0.0000   0.0000   0.3754
   4.000   1.0966   0.01101   0.00541  -0.1434  0.6358  1.0000  -1.3724   0.0000   0.0000   0.0000   0.3739
   4.100   1.1075   0.01104   0.00542  -0.1434  0.6330  1.0000  -1.3870   0.0000   0.0000   0.0000   0.3724
   4.200   1.1190   0.01107   0.00542  -0.1435  0.6308  1.0000  -1.4022   0.0000   0.0000   0.0000   0.3710
   4.300   1.1292   0.01112   0.00548  -0.1433  0.6277  1.0000  -1.4168   0.0000   0.0000   0.0000   0.3696
   4.400   1.1395   0.01116   0.00553  -0.1432  0.6244  1.0000  -1.4320   0.0000   0.0000   0.0000   0.3682
   4.500   1.1505   0.01119   0.00555  -0.1432  0.6217  1.0000  -1.4482   0.0000   0.0000   0.0000   0.3668
   4.600   1.1618   0.01122   0.00555  -0.1432  0.6192  1.0000  -1.4652   0.0000   0.0000   0.0000   0.3655
   4.700   1.1714   0.01128   0.00564  -0.1430  0.6154  1.0000  -1.4806   0.0000   0.0000   0.0000   0.3641
   4.800   1.1819   0.01132   0.00568  -0.1429  0.6122  1.0000  -1.4970   0.0000   0.0000   0.0000   0.3628
   4.900   1.1930   0.01136   0.00568  -0.1429  0.6095  1.0000  -1.5145   0.0000   0.0000   0.0000   0.3615
   5.000   1.2028   0.01142   0.00576  -0.1427  0.6058  1.0000  -1.5311   0.0000   0.0000   0.0000   0.3603
   5.100   1.2130   0.01147   0.00582  -0.1425  0.6022  1.0000  -1.5483   0.0000   0.0000   0.0000   0.3590
   5.200   1.2238   0.01151   0.00583  -0.1424  0.5992  1.0000  -1.5670   0.0000   0.0000   0.0000   0.3578
   5.300   1.2336   0.01157   0.00590  -0.1422  0.5954  1.0000  -1.5857   0.0000   0.0000   0.0000   0.3565
   5.400   1.2436   0.01162   0.00597  -0.1421  0.5915  1.0000  -1.6048   0.0000   0.0000   0.0000   0.3553
   5.500   1.2543   0.01168   0.00599  -0.1420  0.5883  1.0000  -1.6253   0.0000   0.0000   0.0000   0.3541
   5.600   1.2638   0.01174   0.00608  -0.1417  0.5842  1.0000  -1.6448   0.0000   0.0000   0.0000   0.3529
   5.700   1.2737   0.01181   0.00614  -0.1415  0.5802  1.0000  -1.6652   0.0000   0.0000   0.0000   0.3518
   5.800   1.2842   0.01187   0.00617  -0.1414  0.5768  1.0000  -1.6864   0.0000   0.0000   0.0000   0.3506
   5.900   1.2934   0.01194   0.00628  -0.1411  0.5722  1.0000  -1.7065   0.0000   0.0000   0.0000   0.3495
   6.000   1.3033   0.01201   0.00633  -0.1409  0.5683  1.0000  -1.7279   0.0000   0.0000   0.0000   0.3483
   6.100   1.3130   0.01209   0.00640  -0.1407  0.5641  1.0000  -1.7498   0.0000   0.0000   0.0000   0.3472
   6.200   1.3224   0.01217   0.00650  -0.1404  0.5596  1.0000  -1.7714   0.0000   0.0000   0.0000   0.3461
   6.300   1.3323   0.01225   0.00655  -0.1402  0.5559  1.0000  -1.7942   0.0000   0.0000   0.0000   0.3450
   6.400   1.3413   0.01234   0.00666  -0.1399  0.5510  1.0000  -1.8187   0.0000   0.0000   0.0000   0.3439
   6.500   1.3508   0.01243   0.00673  -0.1396  0.5467  1.0000  -1.8453   0.0000   0.0000   0.0000   0.3428
   6.600   1.3599   0.01253   0.00683  -0.1393  0.5420  1.0000  -1.8719   0.0000   0.0000   0.0000   0.3417
   6.700   1.3689   0.01262   0.00693  -0.1390  0.5371  1.0000  -1.8991   0.0000   0.0000   0.0000   0.3407
   6.800   1.3780   0.01273   0.00702  -0.1387  0.5325  1.0000  -1.9279   0.0000   0.0000   0.0000   0.3396
   6.900   1.3867   0.01284   0.00713  -0.1383  0.5273  1.0000  -1.9572   0.0000   0.0000   0.0000   0.3386
   7.000   1.3955   0.01295   0.00723  -0.1379  0.5226  1.0000  -1.9869   0.0000   0.0000   0.0000   0.3375
   7.100   1.4039   0.01307   0.00735  -0.1375  0.5171  1.0000  -2.0164   0.0000   0.0000   0.0000   0.3365
   7.200   1.4125   0.01320   0.00745  -0.1371  0.5124  1.0000  -2.0473   0.0000   0.0000   0.0000   0.3354
   7.300   1.4206   0.01332   0.00759  -0.1366  0.5069  1.0000  -2.0775   0.0000   0.0000   0.0000   0.3344
   7.500   1.4368   0.01359   0.00785  -0.1357  0.4964  1.0000  -2.1405   0.0000   0.0000   0.0000   0.3323
   7.700   1.4522   0.01389   0.00813  -0.1346  0.4856  1.0000  -2.2033   0.0000   0.0000   0.0000   0.3303
   7.800   1.4596   0.01406   0.00828  -0.1340  0.4804  1.0000  -2.2347   0.0000   0.0000   0.0000   0.3292
   7.900   1.4668   0.01421   0.00844  -0.1334  0.4744  1.0000  -2.2669   0.0000   0.0000   0.0000   0.3282
   8.000   1.4737   0.01440   0.00860  -0.1327  0.4689  1.0000  -2.2988   0.0000   0.0000   0.0000   0.3272
   8.100   1.4803   0.01457   0.00878  -0.1321  0.4627  1.0000  -2.3303   0.0000   0.0000   0.0000   0.3261
   8.200   1.4863   0.01476   0.00895  -0.1313  0.4568  1.0000  -2.3610   0.0000   0.0000   0.0000   0.3251
   8.300   1.4916   0.01496   0.00913  -0.1303  0.4506  1.0000  -2.3908   0.0000   0.0000   0.0000   0.3240
   8.400   1.4969   0.01516   0.00933  -0.1294  0.4446  1.0000  -2.4218   0.0000   0.0000   0.0000   0.3229
   8.500   1.5018   0.01539   0.00954  -0.1284  0.4385  1.0000  -2.4522   0.0000   0.0000   0.0000   0.3218
   8.600   1.5070   0.01562   0.00976  -0.1275  0.4322  1.0000  -2.4831   0.0000   0.0000   0.0000   0.3207
   8.700   1.5116   0.01588   0.01000  -0.1266  0.4264  1.0000  -2.5130   0.0000   0.0000   0.0000   0.3197
   8.800   1.5166   0.01612   0.01024  -0.1257  0.4200  1.0000  -2.5469   0.0000   0.0000   0.0000   0.3187
   8.900   1.5211   0.01640   0.01050  -0.1247  0.4141  1.0000  -2.5837   0.0000   0.0000   0.0000   0.3176
   9.000   1.5255   0.01669   0.01078  -0.1238  0.4078  1.0000  -2.6215   0.0000   0.0000   0.0000   0.3166
   9.100   1.5300   0.01698   0.01106  -0.1229  0.4017  1.0000  -2.6604   0.0000   0.0000   0.0000   0.3156
   9.200   1.5338   0.01732   0.01137  -0.1219  0.3957  1.0000  -2.6978   0.0000   0.0000   0.0000   0.3146
   9.300   1.5382   0.01763   0.01169  -0.1211  0.3892  1.0000  -2.7369   0.0000   0.0000   0.0000   0.3136
   9.400   1.5418   0.01799   0.01202  -0.1201  0.3833  1.0000  -2.7741   0.0000   0.0000   0.0000   0.3126
   9.500   1.5458   0.01834   0.01237  -0.1192  0.3768  1.0000  -2.8126   0.0000   0.0000   0.0000   0.3117
   9.600   1.5496   0.01871   0.01273  -0.1183  0.3707  1.0000  -2.8504   0.0000   0.0000   0.0000   0.3107
   9.700   1.5528   0.01912   0.01313  -0.1174  0.3645  1.0000  -2.8871   0.0000   0.0000   0.0000   0.3098
   9.800   1.5567   0.01951   0.01351  -0.1165  0.3581  1.0000  -2.9256   0.0000   0.0000   0.0000   0.3089
   9.900   1.5596   0.01996   0.01393  -0.1156  0.3522  1.0000  -2.9617   0.0000   0.0000   0.0000   0.3080
  10.000   1.5632   0.02037   0.01435  -0.1148  0.3457  1.0000  -2.9997   0.0000   0.0000   0.0000   0.3071
  10.100   1.5664   0.02083   0.01479  -0.1139  0.3396  1.0000  -3.0367   0.0000   0.0000   0.0000   0.3062
  10.200   1.5690   0.02132   0.01526  -0.1130  0.3334  1.0000  -3.0724   0.0000   0.0000   0.0000   0.3053
  10.300   1.5724   0.02178   0.01571  -0.1122  0.3269  1.0000  -3.1102   0.0000   0.0000   0.0000   0.3044
  10.400   1.5748   0.02230   0.01622  -0.1113  0.3209  1.0000  -3.1455   0.0000   0.0000   0.0000   0.3036
  10.500   1.5777   0.02281   0.01672  -0.1105  0.3144  1.0000  -3.1821   0.0000   0.0000   0.0000   0.3027
  10.600   1.5804   0.02333   0.01723  -0.1096  0.3082  1.0000  -3.2203   0.0000   0.0000   0.0000   0.3019
  10.800   1.5851   0.02445   0.01832  -0.1080  0.2956  1.0000  -3.2953   0.0000   0.0000   0.0000   0.3003
  10.900   1.5872   0.02504   0.01890  -0.1071  0.2895  1.0000  -3.3322   0.0000   0.0000   0.0000   0.2994
  11.000   1.5890   0.02565   0.01949  -0.1063  0.2834  1.0000  -3.3683   0.0000   0.0000   0.0000   0.2986
  11.100   1.5914   0.02623   0.02007  -0.1055  0.2771  1.0000  -3.4064   0.0000   0.0000   0.0000   0.2979
  11.200   1.5928   0.02689   0.02070  -0.1046  0.2711  1.0000  -3.4417   0.0000   0.0000   0.0000   0.2971
  11.300   1.5947   0.02752   0.02132  -0.1038  0.2648  1.0000  -3.4783   0.0000   0.0000   0.0000   0.2963
  11.400   1.5965   0.02817   0.02196  -0.1031  0.2587  1.0000  -3.5149   0.0000   0.0000   0.0000   0.2955
  11.500   1.5973   0.02888   0.02265  -0.1022  0.2529  1.0000  -3.5486   0.0000   0.0000   0.0000   0.2947
  11.600   1.5992   0.02954   0.02330  -0.1014  0.2466  1.0000  -3.5855   0.0000   0.0000   0.0000   0.2940
  11.700   1.6005   0.03024   0.02398  -0.1006  0.2407  1.0000  -3.6208   0.0000   0.0000   0.0000   0.2933
  11.800   1.6010   0.03100   0.02472  -0.0998  0.2351  1.0000  -3.6537   0.0000   0.0000   0.0000   0.2925
  11.900   1.6027   0.03169   0.02541  -0.0991  0.2289  1.0000  -3.6901   0.0000   0.0000   0.0000   0.2918
  12.000   1.6035   0.03245   0.02616  -0.0983  0.2231  1.0000  -3.7240   0.0000   0.0000   0.0000   0.2911
  12.100   1.6038   0.03325   0.02694  -0.0975  0.2173  1.0000  -3.7566   0.0000   0.0000   0.0000   0.2904
  12.200   1.6050   0.03399   0.02767  -0.0968  0.2113  1.0000  -3.7918   0.0000   0.0000   0.0000   0.2897
  12.300   1.6052   0.03482   0.02848  -0.0960  0.2058  1.0000  -3.8240   0.0000   0.0000   0.0000   0.2890
  12.400   1.6057   0.03564   0.02929  -0.0953  0.2001  1.0000  -3.8585   0.0000   0.0000   0.0000   0.2883
  12.500   1.6065   0.03645   0.03008  -0.0946  0.1944  1.0000  -3.8949   0.0000   0.0000   0.0000   0.2876
  12.600   1.6064   0.03733   0.03095  -0.0938  0.1892  1.0000  -3.9282   0.0000   0.0000   0.0000   0.2869
  12.700   1.6070   0.03818   0.03179  -0.0932  0.1836  1.0000  -3.9639   0.0000   0.0000   0.0000   0.2863
  12.800   1.6075   0.03904   0.03264  -0.0925  0.1783  1.0000  -3.9994   0.0000   0.0000   0.0000   0.2857
  13.000   1.6080   0.04083   0.03440  -0.0912  0.1682  1.0000  -4.0686   0.0000   0.0000   0.0000   0.2844
  13.100   1.6081   0.04176   0.03533  -0.0906  0.1636  1.0000  -4.1023   0.0000   0.0000   0.0000   0.2838
  13.200   1.6082   0.04269   0.03625  -0.0900  0.1588  1.0000  -4.1386   0.0000   0.0000   0.0000   0.2832
  13.300   1.6088   0.04361   0.03717  -0.0894  0.1542  1.0000  -4.1764   0.0000   0.0000   0.0000   0.2826
  13.400   1.6083   0.04462   0.03816  -0.0888  0.1501  1.0000  -4.2105   0.0000   0.0000   0.0000   0.2820
  13.500   1.6092   0.04552   0.03907  -0.0883  0.1455  1.0000  -4.2497   0.0000   0.0000   0.0000   0.2815
  13.600   1.6087   0.04655   0.04009  -0.0877  0.1416  1.0000  -4.2840   0.0000   0.0000   0.0000   0.2809
  13.700   1.6092   0.04749   0.04104  -0.0872  0.1373  1.0000  -4.3219   0.0000   0.0000   0.0000   0.2804
  13.800   1.6090   0.04852   0.04206  -0.0867  0.1335  1.0000  -4.3570   0.0000   0.0000   0.0000   0.2798
  13.900   1.6090   0.04953   0.04307  -0.0862  0.1295  1.0000  -4.3932   0.0000   0.0000   0.0000   0.2793
  14.000   1.6089   0.05057   0.04410  -0.0857  0.1259  1.0000  -4.4304   0.0000   0.0000   0.0000   0.2788
  14.100   1.6087   0.05162   0.04516  -0.0852  0.1223  1.0000  -4.4680   0.0000   0.0000   0.0000   0.2783
  14.200   1.6086   0.05268   0.04622  -0.0848  0.1188  1.0000  -4.5059   0.0000   0.0000   0.0000   0.2778
  14.300   1.6083   0.05377   0.04731  -0.0843  0.1154  1.0000  -4.5429   0.0000   0.0000   0.0000   0.2773
  14.400   1.6080   0.05487   0.04841  -0.0839  0.1122  1.0000  -4.5802   0.0000   0.0000   0.0000   0.2768
  14.500   1.6077   0.05597   0.04952  -0.0835  0.1090  1.0000  -4.6171   0.0000   0.0000   0.0000   0.2764
  14.600   1.6069   0.05712   0.05067  -0.0831  0.1062  1.0000  -4.6525   0.0000   0.0000   0.0000   0.2759
  14.700   1.6068   0.05822   0.05179  -0.0827  0.1032  1.0000  -4.6903   0.0000   0.0000   0.0000   0.2755
  14.800   1.6053   0.05949   0.05304  -0.0823  0.1007  1.0000  -4.7225   0.0000   0.0000   0.0000   0.2750
  14.900   1.6057   0.06055   0.05413  -0.0820  0.0978  1.0000  -4.7625   0.0000   0.0000   0.0000   0.2746
  15.000   1.6042   0.06182   0.05540  -0.0816  0.0955  1.0000  -4.7968   0.0000   0.0000   0.0000   0.2742
  15.100   1.6041   0.06296   0.05656  -0.0813  0.0929  1.0000  -4.8369   0.0000   0.0000   0.0000   0.2738
  15.200   1.6035   0.06417   0.05778  -0.0810  0.0906  1.0000  -4.8748   0.0000   0.0000   0.0000   0.2734
  15.300   1.6014   0.06555   0.05915  -0.0807  0.0887  1.0000  -4.9063   0.0000   0.0000   0.0000   0.2730
  15.400   1.6020   0.06662   0.06027  -0.0805  0.0862  1.0000  -4.9496   0.0000   0.0000   0.0000   0.2726
  15.500   1.6007   0.06793   0.06158  -0.0802  0.0843  1.0000  -4.9845   0.0000   0.0000   0.0000   0.2723
  15.600   1.5989   0.06929   0.06294  -0.0800  0.0826  1.0000  -5.0172   0.0000   0.0000   0.0000   0.2720
  15.700   1.5992   0.07043   0.06412  -0.0798  0.0804  1.0000  -5.0588   0.0000   0.0000   0.0000   0.2716
  15.800   1.5977   0.07177   0.06547  -0.0796  0.0786  1.0000  -5.0929   0.0000   0.0000   0.0000   0.2713
  15.900   1.5954   0.07323   0.06692  -0.0794  0.0772  1.0000  -5.1231   0.0000   0.0000   0.0000   0.2710
  16.000   1.5958   0.07438   0.06812  -0.0792  0.0752  1.0000  -5.1653   0.0000   0.0000   0.0000   0.2706
  16.100   1.5947   0.07572   0.06948  -0.0790  0.0735  1.0000  -5.2005   0.0000   0.0000   0.0000   0.2703
  16.200   1.5921   0.07723   0.07099  -0.0789  0.0722  1.0000  -5.2294   0.0000   0.0000   0.0000   0.2701
  16.300   1.5918   0.07849   0.07229  -0.0788  0.0706  1.0000  -5.2679   0.0000   0.0000   0.0000   0.2698
  16.400   1.5911   0.07979   0.07362  -0.0787  0.0690  1.0000  -5.3052   0.0000   0.0000   0.0000   0.2695
  16.500   1.5892   0.08126   0.07510  -0.0786  0.0677  1.0000  -5.3366   0.0000   0.0000   0.0000   0.2693
  16.600   1.5862   0.08286   0.07669  -0.0785  0.0666  1.0000  -5.3626   0.0000   0.0000   0.0000   0.2691
  16.700   1.5864   0.08407   0.07795  -0.0785  0.0650  1.0000  -5.4036   0.0000   0.0000   0.0000   0.2688
  16.800   1.5855   0.08543   0.07934  -0.0784  0.0637  1.0000  -5.4392   0.0000   0.0000   0.0000   0.2686
  16.900   1.5833   0.08696   0.08088  -0.0784  0.0626  1.0000  -5.4689   0.0000   0.0000   0.0000   0.2684
  17.000   1.5800   0.08861   0.08253  -0.0784  0.0617  1.0000  -5.4932   0.0000   0.0000   0.0000   0.2683
  17.100   1.5800   0.08989   0.08386  -0.0784  0.0603  1.0000  -5.5324   0.0000   0.0000   0.0000   0.2680
  17.200   1.5791   0.09127   0.08528  -0.0784  0.0590  1.0000  -5.5676   0.0000   0.0000   0.0000   0.2678
  17.300   1.5773   0.09278   0.08681  -0.0785  0.0580  1.0000  -5.5985   0.0000   0.0000   0.0000   0.2677
  17.400   1.5744   0.09443   0.08846  -0.0786  0.0572  1.0000  -5.6242   0.0000   0.0000   0.0000   0.2676
  17.500   1.5727   0.09594   0.08999  -0.0786  0.0562  1.0000  -5.6545   0.0000   0.0000   0.0000   0.2674
  17.600   1.5721   0.09731   0.09142  -0.0787  0.0550  1.0000  -5.6903   0.0000   0.0000   0.0000   0.2673
  17.700   1.5709   0.09877   0.09290  -0.0788  0.0539  1.0000  -5.7235   0.0000   0.0000   0.0000   0.2671
  17.800   1.5688   0.10034   0.09449  -0.0790  0.0531  1.0000  -5.7524   0.0000   0.0000   0.0000   0.2670
  17.900   1.5659   0.10201   0.09616  -0.0792  0.0524  1.0000  -5.7767   0.0000   0.0000   0.0000   0.2670
  18.000   1.5645   0.10349   0.09768  -0.0793  0.0514  1.0000  -5.8079   0.0000   0.0000   0.0000   0.2669
  18.100   1.5637   0.10491   0.09915  -0.0795  0.0504  1.0000  -5.8419   0.0000   0.0000   0.0000   0.2668
  18.200   1.5625   0.10639   0.10067  -0.0797  0.0494  1.0000  -5.8740   0.0000   0.0000   0.0000   0.2667
  18.300   1.5606   0.10796   0.10225  -0.0799  0.0487  1.0000  -5.9033   0.0000   0.0000   0.0000   0.2667
  18.400   1.5582   0.10959   0.10388  -0.0802  0.0480  1.0000  -5.9294   0.0000   0.0000   0.0000   0.2666
  18.500   1.5563   0.11116   0.10546  -0.0804  0.0472  1.0000  -5.9572   0.0000   0.0000   0.0000   0.2666
  18.600   1.5557   0.11259   0.10696  -0.0807  0.0463  1.0000  -5.9906   0.0000   0.0000   0.0000   0.2665
  18.700   1.5547   0.11407   0.10848  -0.0809  0.0455  1.0000  -6.0228   0.0000   0.0000   0.0000   0.2665
  18.800   1.5533   0.11561   0.11004  -0.0813  0.0447  1.0000  -6.0532   0.0000   0.0000   0.0000   0.2665
  18.900   1.5517   0.11716   0.11160  -0.0816  0.0441  1.0000  -6.0829   0.0000   0.0000   0.0000   0.2665
  19.000   1.5496   0.11874   0.11316  -0.0819  0.0435  1.0000  -6.1099   0.0000   0.0000   0.0000   0.2666
  19.100   1.5486   0.12022   0.11469  -0.0823  0.0428  1.0000  -6.1401   0.0000   0.0000   0.0000   0.2665
  19.200   1.5479   0.12168   0.11621  -0.0826  0.0420  1.0000  -6.1721   0.0000   0.0000   0.0000   0.2665
  19.300   1.5469   0.12318   0.11774  -0.0830  0.0413  1.0000  -6.2029   0.0000   0.0000   0.0000   0.2666
  19.400   1.5459   0.12467   0.11926  -0.0834  0.0407  1.0000  -6.2341   0.0000   0.0000   0.0000   0.2666
  19.500   1.5448   0.12617   0.12077  -0.0838  0.0401  1.0000  -6.2653   0.0000   0.0000   0.0000   0.2667
  19.600   1.5435   0.12765   0.12224  -0.0842  0.0396  1.0000  -6.2957   0.0000   0.0000   0.0000   0.2667
  19.700   1.5426   0.12906   0.12365  -0.0846  0.0390  1.0000  -6.3270   0.0000   0.0000   0.0000   0.2667
  19.800   1.5419   0.13056   0.12523  -0.0851  0.0384  1.0000  -6.3567   0.0000   0.0000   0.0000   0.2668
  19.900   1.5412   0.13205   0.12677  -0.0856  0.0378  1.0000  -6.3870   0.0000   0.0000   0.0000   0.2668
  20.000   1.5406   0.13351   0.12826  -0.0861  0.0372  1.0000  -6.4188   0.0000   0.0000   0.0000   0.2669


