xflr5 v6.57

 Calculated polar for: wine

 1 1 Reynolds number fixed          Mach number fixed         

 xtrf =   1.000 (top)        1.000 (bottom)
 Mach =   0.000     Re =     0.800 e 6     Ncrit =   9.000

  alpha     CL        CD       CDp       Cm    Top Xtr Bot Xtr   Cpmin    Chinge    XCp    
 ------- -------- --------- --------- -------- ------- ------- -------- --------- ---------
 -10.000  -0.4532   0.02024   0.01530  -0.1368  0.8041  0.0210  -6.4741   0.0000   0.0000   0.0000  -0.0725
  -9.900  -0.4430   0.01995   0.01495  -0.1369  0.8027  0.0211  -6.3834   0.0000   0.0000   0.0000  -0.0799
  -9.800  -0.4347   0.01912   0.01402  -0.1372  0.8015  0.0213  -6.3232   0.0000   0.0000   0.0000  -0.0864
  -9.700  -0.4257   0.01853   0.01337  -0.1373  0.8004  0.0215  -6.2470   0.0000   0.0000   0.0000  -0.0936
  -9.600  -0.4157   0.01816   0.01298  -0.1374  0.7990  0.0217  -6.1568   0.0000   0.0000   0.0000  -0.1018
  -9.500  -0.4053   0.01788   0.01268  -0.1376  0.7976  0.0218  -6.0621   0.0000   0.0000   0.0000  -0.1108
  -9.400  -0.3948   0.01763   0.01242  -0.1377  0.7962  0.0220  -5.9697   0.0000   0.0000   0.0000  -0.1203
  -9.300  -0.3842   0.01741   0.01217  -0.1378  0.7948  0.0222  -5.8799   0.0000   0.0000   0.0000  -0.1304
  -9.200  -0.3736   0.01719   0.01193  -0.1379  0.7936  0.0224  -5.7909   0.0000   0.0000   0.0000  -0.1412
  -9.100  -0.3629   0.01699   0.01168  -0.1380  0.7924  0.0226  -5.7024   0.0000   0.0000   0.0000  -0.1526
  -9.000  -0.3521   0.01679   0.01145  -0.1381  0.7913  0.0228  -5.6143   0.0000   0.0000   0.0000  -0.1647
  -8.900  -0.3413   0.01659   0.01122  -0.1382  0.7901  0.0230  -5.5270   0.0000   0.0000   0.0000  -0.1777
  -8.800  -0.3305   0.01639   0.01098  -0.1383  0.7887  0.0233  -5.4408   0.0000   0.0000   0.0000  -0.1917
  -8.700  -0.3197   0.01618   0.01074  -0.1384  0.7873  0.0235  -5.3555   0.0000   0.0000   0.0000  -0.2066
  -8.600  -0.3088   0.01598   0.01049  -0.1385  0.7860  0.0238  -5.2714   0.0000   0.0000   0.0000  -0.2225
  -8.500  -0.2979   0.01578   0.01025  -0.1385  0.7847  0.0240  -5.1881   0.0000   0.0000   0.0000  -0.2397
  -8.400  -0.2869   0.01559   0.01001  -0.1386  0.7836  0.0242  -5.1052   0.0000   0.0000   0.0000  -0.2582
  -8.300  -0.2759   0.01542   0.00979  -0.1387  0.7825  0.0244  -5.0224   0.0000   0.0000   0.0000  -0.2783
  -8.200  -0.2648   0.01528   0.00958  -0.1387  0.7815  0.0246  -4.9393   0.0000   0.0000   0.0000  -0.3003
  -8.100  -0.2548   0.01478   0.00905  -0.1388  0.7802  0.0249  -4.8729   0.0000   0.0000   0.0000  -0.3219
  -8.000  -0.2443   0.01443   0.00869  -0.1389  0.7788  0.0251  -4.7965   0.0000   0.0000   0.0000  -0.3463
  -7.900  -0.2335   0.01421   0.00846  -0.1390  0.7774  0.0254  -4.7135   0.0000   0.0000   0.0000  -0.3739
  -7.800  -0.2224   0.01403   0.00827  -0.1391  0.7762  0.0256  -4.6289   0.0000   0.0000   0.0000  -0.4047
  -7.700  -0.2114   0.01388   0.00810  -0.1392  0.7749  0.0259  -4.5444   0.0000   0.0000   0.0000  -0.4389
  -7.600  -0.2002   0.01373   0.00793  -0.1393  0.7738  0.0262  -4.4606   0.0000   0.0000   0.0000  -0.4770
  -7.500  -0.1891   0.01359   0.00776  -0.1393  0.7728  0.0264  -4.3778   0.0000   0.0000   0.0000  -0.5196
  -7.400  -0.1779   0.01345   0.00758  -0.1394  0.7718  0.0267  -4.2962   0.0000   0.0000   0.0000  -0.5677
  -7.300  -0.1668   0.01329   0.00741  -0.1395  0.7704  0.0271  -4.2157   0.0000   0.0000   0.0000  -0.6223
  -7.200  -0.1555   0.01314   0.00724  -0.1396  0.7691  0.0274  -4.1360   0.0000   0.0000   0.0000  -0.6849
  -7.100  -0.1443   0.01300   0.00707  -0.1396  0.7677  0.0277  -4.0563   0.0000   0.0000   0.0000  -0.7576
  -7.000  -0.1330   0.01289   0.00692  -0.1397  0.7665  0.0280  -3.9762   0.0000   0.0000   0.0000  -0.8431
  -6.900  -0.1216   0.01280   0.00680  -0.1398  0.7653  0.0283  -3.8957   0.0000   0.0000   0.0000  -0.9454
  -6.800  -0.1108   0.01251   0.00648  -0.1398  0.7642  0.0287  -3.8242   0.0000   0.0000   0.0000  -1.0616
  -6.700  -0.0998   0.01229   0.00625  -0.1399  0.7631  0.0292  -3.7478   0.0000   0.0000   0.0000  -1.2055
  -6.600  -0.0886   0.01216   0.00611  -0.1400  0.7621  0.0295  -3.6681   0.0000   0.0000   0.0000  -1.3901
  -6.500  -0.0773   0.01204   0.00599  -0.1401  0.7608  0.0299  -3.5935   0.0000   0.0000   0.0000  -1.6294
  -6.400  -0.0660   0.01192   0.00587  -0.1402  0.7595  0.0303  -3.5215   0.0000   0.0000   0.0000  -1.9516
  -6.300  -0.0546   0.01180   0.00574  -0.1403  0.7582  0.0307  -3.4505   0.0000   0.0000   0.0000  -2.4084
  -6.200  -0.0433   0.01169   0.00561  -0.1403  0.7570  0.0312  -3.3804   0.0000   0.0000   0.0000  -3.1060
  -6.100  -0.0319   0.01158   0.00547  -0.1404  0.7558  0.0316  -3.3111   0.0000   0.0000   0.0000  -4.3040
  -6.000  -0.0204   0.01148   0.00535  -0.1405  0.7546  0.0321  -3.2421   0.0000   0.0000   0.0000  -6.8483
  -5.900  -0.0090   0.01141   0.00523  -0.1405  0.7536  0.0324  -3.1728   0.0000   0.0000   0.0000  -15.9368
  -5.800   0.0021   0.01117   0.00498  -0.1406  0.7525  0.0330  -3.1097   0.0000   0.0000   0.0000  70.7149
  -5.700   0.0133   0.01103   0.00484  -0.1407  0.7513  0.0336  -3.0413   0.0000   0.0000   0.0000  11.1398
  -5.600   0.0247   0.01092   0.00474  -0.1408  0.7499  0.0341  -2.9718   0.0000   0.0000   0.0000   6.1227
  -5.500   0.0361   0.01083   0.00465  -0.1409  0.7486  0.0347  -2.9026   0.0000   0.0000   0.0000   4.2646
  -5.400   0.0476   0.01075   0.00456  -0.1409  0.7473  0.0354  -2.8343   0.0000   0.0000   0.0000   3.2975
  -5.300   0.0591   0.01068   0.00447  -0.1410  0.7460  0.0361  -2.7669   0.0000   0.0000   0.0000   2.7041
  -5.200   0.0707   0.01062   0.00438  -0.1411  0.7449  0.0367  -2.6998   0.0000   0.0000   0.0000   2.3023
  -5.100   0.0819   0.01044   0.00419  -0.1412  0.7438  0.0376  -2.6368   0.0000   0.0000   0.0000   2.0210
  -5.000   0.0933   0.01035   0.00409  -0.1413  0.7428  0.0384  -2.5704   0.0000   0.0000   0.0000   1.8040
  -4.900   0.1048   0.01027   0.00401  -0.1414  0.7416  0.0391  -2.5085   0.0000   0.0000   0.0000   1.6339
  -4.800   0.1163   0.01019   0.00393  -0.1414  0.7402  0.0400  -2.4487   0.0000   0.0000   0.0000   1.4971
  -4.700   0.1278   0.01012   0.00385  -0.1415  0.7388  0.0409  -2.3897   0.0000   0.0000   0.0000   1.3846
  -4.600   0.1393   0.01003   0.00374  -0.1416  0.7375  0.0417  -2.3320   0.0000   0.0000   0.0000   1.2910
  -4.500   0.1507   0.00990   0.00362  -0.1417  0.7362  0.0428  -2.2741   0.0000   0.0000   0.0000   1.2123
  -4.400   0.1622   0.00983   0.00354  -0.1418  0.7350  0.0439  -2.2148   0.0000   0.0000   0.0000   1.1440
  -4.300   0.1737   0.00977   0.00347  -0.1418  0.7339  0.0450  -2.1564   0.0000   0.0000   0.0000   1.0845
  -4.200   0.1854   0.00973   0.00340  -0.1419  0.7328  0.0461  -2.0985   0.0000   0.0000   0.0000   1.0322
  -4.100   0.1968   0.00962   0.00330  -0.1420  0.7316  0.0475  -2.0421   0.0000   0.0000   0.0000   0.9868
  -4.000   0.2083   0.00954   0.00324  -0.1421  0.7302  0.0490  -1.9843   0.0000   0.0000   0.0000   0.9462
  -3.900   0.2198   0.00949   0.00318  -0.1422  0.7287  0.0505  -1.9273   0.0000   0.0000   0.0000   0.9096
  -3.800   0.2313   0.00942   0.00310  -0.1422  0.7274  0.0520  -1.8716   0.0000   0.0000   0.0000   0.8767
  -3.700   0.2428   0.00933   0.00303  -0.1423  0.7261  0.0538  -1.8156   0.0000   0.0000   0.0000   0.8470
  -3.600   0.2544   0.00928   0.00297  -0.1424  0.7249  0.0557  -1.7600   0.0000   0.0000   0.0000   0.8198
  -3.500   0.2660   0.00922   0.00289  -0.1425  0.7238  0.0576  -1.7066   0.0000   0.0000   0.0000   0.7950
  -3.400   0.2775   0.00916   0.00283  -0.1426  0.7227  0.0599  -1.6561   0.0000   0.0000   0.0000   0.7724
  -3.300   0.2890   0.00911   0.00278  -0.1427  0.7213  0.0623  -1.6063   0.0000   0.0000   0.0000   0.7515
  -3.200   0.3005   0.00902   0.00273  -0.1427  0.7198  0.0651  -1.5569   0.0000   0.0000   0.0000   0.7323
  -3.100   0.3121   0.00897   0.00268  -0.1428  0.7183  0.0683  -1.5075   0.0000   0.0000   0.0000   0.7145
  -3.000   0.3236   0.00889   0.00262  -0.1429  0.7169  0.0719  -1.4586   0.0000   0.0000   0.0000   0.6979
  -2.900   0.3351   0.00884   0.00257  -0.1430  0.7155  0.0760  -1.4101   0.0000   0.0000   0.0000   0.6825
  -2.800   0.3466   0.00878   0.00252  -0.1431  0.7143  0.0807  -1.3618   0.0000   0.0000   0.0000   0.6681
  -2.700   0.3582   0.00872   0.00247  -0.1432  0.7131  0.0861  -1.3139   0.0000   0.0000   0.0000   0.6546
  -2.600   0.3697   0.00867   0.00243  -0.1433  0.7118  0.0924  -1.2664   0.0000   0.0000   0.0000   0.6420
  -2.500   0.3812   0.00860   0.00240  -0.1434  0.7103  0.0997  -1.2193   0.0000   0.0000   0.0000   0.6302
  -2.400   0.3927   0.00853   0.00236  -0.1435  0.7087  0.1080  -1.1726   0.0000   0.0000   0.0000   0.6191
  -2.300   0.4042   0.00847   0.00233  -0.1436  0.7073  0.1173  -1.1262   0.0000   0.0000   0.0000   0.6086
  -2.200   0.4157   0.00841   0.00230  -0.1436  0.7058  0.1273  -1.0802   0.0000   0.0000   0.0000   0.5986
  -2.100   0.4272   0.00834   0.00226  -0.1437  0.7045  0.1382  -1.0346   0.0000   0.0000   0.0000   0.5893
  -2.000   0.4387   0.00829   0.00224  -0.1438  0.7033  0.1499  -0.9924   0.0000   0.0000   0.0000   0.5804
  -1.900   0.4503   0.00824   0.00221  -0.1439  0.7020  0.1621  -0.9509   0.0000   0.0000   0.0000   0.5719
  -1.800   0.4617   0.00818   0.00220  -0.1440  0.7004  0.1745  -0.9100   0.0000   0.0000   0.0000   0.5639
  -1.700   0.4732   0.00812   0.00218  -0.1441  0.6988  0.1875  -0.8693   0.0000   0.0000   0.0000   0.5563
  -1.600   0.4847   0.00806   0.00216  -0.1442  0.6972  0.2011  -0.8290   0.0000   0.0000   0.0000   0.5490
  -1.500   0.4962   0.00800   0.00215  -0.1443  0.6957  0.2153  -0.8358   0.0000   0.0000   0.0000   0.5421
  -1.400   0.5077   0.00795   0.00213  -0.1444  0.6943  0.2307  -0.8433   0.0000   0.0000   0.0000   0.5355
  -1.300   0.5192   0.00791   0.00211  -0.1445  0.6930  0.2461  -0.8508   0.0000   0.0000   0.0000   0.5291
  -1.200   0.5307   0.00786   0.00210  -0.1446  0.6916  0.2620  -0.8583   0.0000   0.0000   0.0000   0.5231
  -1.100   0.5421   0.00780   0.00210  -0.1447  0.6899  0.2792  -0.8661   0.0000   0.0000   0.0000   0.5173
  -1.000   0.5535   0.00774   0.00209  -0.1448  0.6882  0.2973  -0.8740   0.0000   0.0000   0.0000   0.5118
  -0.900   0.5650   0.00768   0.00209  -0.1449  0.6865  0.3168  -0.8819   0.0000   0.0000   0.0000   0.5065
  -0.800   0.5764   0.00762   0.00208  -0.1450  0.6849  0.3371  -0.8899   0.0000   0.0000   0.0000   0.5013
  -0.700   0.5878   0.00757   0.00208  -0.1451  0.6835  0.3578  -0.8980   0.0000   0.0000   0.0000   0.4964
  -0.600   0.5993   0.00753   0.00207  -0.1452  0.6821  0.3801  -0.9062   0.0000   0.0000   0.0000   0.4917
  -0.500   0.6107   0.00747   0.00208  -0.1453  0.6804  0.4040  -0.9142   0.0000   0.0000   0.0000   0.4871
  -0.400   0.6221   0.00741   0.00209  -0.1454  0.6786  0.4282  -0.9225   0.0000   0.0000   0.0000   0.4828
  -0.300   0.6335   0.00734   0.00210  -0.1455  0.6768  0.4529  -0.9308   0.0000   0.0000   0.0000   0.4785
  -0.200   0.6448   0.00729   0.00211  -0.1456  0.6751  0.4782  -0.9391   0.0000   0.0000   0.0000   0.4744
  -0.100   0.6562   0.00724   0.00211  -0.1456  0.6736  0.5033  -0.9475   0.0000   0.0000   0.0000   0.4705
   0.000   0.6675   0.00720   0.00212  -0.1457  0.6721  0.5283  -0.9559   0.0000   0.0000   0.0000   0.4666
   0.100   0.6788   0.00716   0.00214  -0.1458  0.6705  0.5530  -0.9643   0.0000   0.0000   0.0000   0.4629
   0.200   0.6901   0.00710   0.00216  -0.1458  0.6685  0.5779  -0.9728   0.0000   0.0000   0.0000   0.4593
   0.300   0.7014   0.00705   0.00218  -0.1458  0.6666  0.6036  -0.9815   0.0000   0.0000   0.0000   0.4559
   0.400   0.7126   0.00701   0.00220  -0.1459  0.6648  0.6300  -0.9903   0.0000   0.0000   0.0000   0.4525
   0.500   0.7237   0.00697   0.00222  -0.1458  0.6631  0.6556  -0.9990   0.0000   0.0000   0.0000   0.4492
   0.600   0.7348   0.00696   0.00224  -0.1458  0.6616  0.6783  -1.0080   0.0000   0.0000   0.0000   0.4459
   0.800   0.7571   0.00690   0.00229  -0.1458  0.6575  0.7176  -1.0264   0.0000   0.0000   0.0000   0.4398
   0.900   0.7681   0.00687   0.00231  -0.1458  0.6554  0.7356  -1.0356   0.0000   0.0000   0.0000   0.4368
   1.000   0.7791   0.00686   0.00233  -0.1457  0.6536  0.7532  -1.0450   0.0000   0.0000   0.0000   0.4339
   1.100   0.7900   0.00685   0.00234  -0.1456  0.6518  0.7705  -1.0544   0.0000   0.0000   0.0000   0.4311
   1.200   0.8009   0.00684   0.00236  -0.1455  0.6499  0.7872  -1.0638   0.0000   0.0000   0.0000   0.4284
   1.300   0.8117   0.00681   0.00239  -0.1454  0.6477  0.8033  -1.0731   0.0000   0.0000   0.0000   0.4257
   1.400   0.8224   0.00679   0.00241  -0.1453  0.6456  0.8195  -1.0825   0.0000   0.0000   0.0000   0.4231
   1.500   0.8329   0.00677   0.00243  -0.1451  0.6435  0.8357  -1.0921   0.0000   0.0000   0.0000   0.4205
   1.600   0.8432   0.00676   0.00244  -0.1449  0.6417  0.8531  -1.1017   0.0000   0.0000   0.0000   0.4179
   1.800   0.8624   0.00669   0.00248  -0.1441  0.6374  0.8957  -1.1201   0.0000   0.0000   0.0000   0.4129
   1.900   0.8712   0.00663   0.00249  -0.1435  0.6351  0.9271  -1.1290   0.0000   0.0000   0.0000   0.4104
   2.000   0.8874   0.00657   0.00246  -0.1445  0.6328  1.0000  -1.1428   0.0000   0.0000   0.0000   0.4084
   2.100   0.8987   0.00662   0.00247  -0.1446  0.6307  1.0000  -1.1536   0.0000   0.0000   0.0000   0.4063
   2.200   0.9101   0.00664   0.00248  -0.1446  0.6284  1.0000  -1.1646   0.0000   0.0000   0.0000   0.4042
   2.300   0.9215   0.00667   0.00251  -0.1447  0.6258  1.0000  -1.1758   0.0000   0.0000   0.0000   0.4022
   2.400   0.9328   0.00670   0.00252  -0.1448  0.6233  1.0000  -1.1870   0.0000   0.0000   0.0000   0.4002
   2.500   0.9441   0.00674   0.00254  -0.1448  0.6210  1.0000  -1.1985   0.0000   0.0000   0.0000   0.3983
   2.600   0.9553   0.00678   0.00256  -0.1449  0.6187  1.0000  -1.2100   0.0000   0.0000   0.0000   0.3964
   2.700   0.9667   0.00680   0.00259  -0.1449  0.6159  1.0000  -1.2218   0.0000   0.0000   0.0000   0.3946
   2.800   0.9779   0.00684   0.00261  -0.1450  0.6132  1.0000  -1.2337   0.0000   0.0000   0.0000   0.3928
   2.900   0.9890   0.00688   0.00263  -0.1450  0.6107  1.0000  -1.2455   0.0000   0.0000   0.0000   0.3910
   3.000   1.0001   0.00693   0.00266  -0.1450  0.6083  1.0000  -1.2573   0.0000   0.0000   0.0000   0.3892
   3.100   1.0114   0.00696   0.00269  -0.1451  0.6054  1.0000  -1.2696   0.0000   0.0000   0.0000   0.3875
   3.200   1.0226   0.00699   0.00272  -0.1451  0.6025  1.0000  -1.2822   0.0000   0.0000   0.0000   0.3859
   3.300   1.0336   0.00704   0.00275  -0.1451  0.5998  1.0000  -1.2947   0.0000   0.0000   0.0000   0.3842
   3.400   1.0446   0.00709   0.00278  -0.1451  0.5971  1.0000  -1.3072   0.0000   0.0000   0.0000   0.3826
   3.500   1.0558   0.00712   0.00281  -0.1452  0.5940  1.0000  -1.3202   0.0000   0.0000   0.0000   0.3811
   3.600   1.0668   0.00717   0.00285  -0.1452  0.5909  1.0000  -1.3331   0.0000   0.0000   0.0000   0.3795
   3.700   1.0775   0.00723   0.00288  -0.1451  0.5881  1.0000  -1.3463   0.0000   0.0000   0.0000   0.3780
   3.800   1.0887   0.00727   0.00292  -0.1452  0.5848  1.0000  -1.3601   0.0000   0.0000   0.0000   0.3765
   3.900   1.0996   0.00731   0.00296  -0.1452  0.5814  1.0000  -1.3742   0.0000   0.0000   0.0000   0.3751
   4.000   1.1103   0.00737   0.00300  -0.1451  0.5782  1.0000  -1.3883   0.0000   0.0000   0.0000   0.3736
   4.100   1.1212   0.00742   0.00304  -0.1451  0.5748  1.0000  -1.4029   0.0000   0.0000   0.0000   0.3722
   4.200   1.1321   0.00747   0.00308  -0.1451  0.5711  1.0000  -1.4178   0.0000   0.0000   0.0000   0.3708
   4.300   1.1426   0.00754   0.00313  -0.1450  0.5676  1.0000  -1.4330   0.0000   0.0000   0.0000   0.3694
   4.400   1.1534   0.00759   0.00318  -0.1450  0.5640  1.0000  -1.4489   0.0000   0.0000   0.0000   0.3681
   4.500   1.1642   0.00765   0.00322  -0.1450  0.5600  1.0000  -1.4653   0.0000   0.0000   0.0000   0.3668
   4.600   1.1745   0.00772   0.00327  -0.1449  0.5563  1.0000  -1.4815   0.0000   0.0000   0.0000   0.3654
   4.700   1.1853   0.00778   0.00333  -0.1448  0.5524  1.0000  -1.4981   0.0000   0.0000   0.0000   0.3642
   4.800   1.1958   0.00785   0.00338  -0.1448  0.5482  1.0000  -1.5146   0.0000   0.0000   0.0000   0.3629
   4.900   1.2061   0.00793   0.00344  -0.1446  0.5443  1.0000  -1.5314   0.0000   0.0000   0.0000   0.3616
   5.000   1.2167   0.00798   0.00350  -0.1446  0.5399  1.0000  -1.5491   0.0000   0.0000   0.0000   0.3604
   5.100   1.2269   0.00807   0.00356  -0.1445  0.5356  1.0000  -1.5664   0.0000   0.0000   0.0000   0.3592
   5.200   1.2373   0.00814   0.00362  -0.1444  0.5314  1.0000  -1.5856   0.0000   0.0000   0.0000   0.3580
   5.300   1.2476   0.00822   0.00369  -0.1443  0.5269  1.0000  -1.6051   0.0000   0.0000   0.0000   0.3568
   5.400   1.2576   0.00831   0.00376  -0.1441  0.5227  1.0000  -1.6247   0.0000   0.0000   0.0000   0.3556
   5.500   1.2680   0.00838   0.00383  -0.1441  0.5179  1.0000  -1.6451   0.0000   0.0000   0.0000   0.3544
   5.600   1.2777   0.00849   0.00390  -0.1439  0.5132  1.0000  -1.6653   0.0000   0.0000   0.0000   0.3533
   5.700   1.2880   0.00856   0.00397  -0.1438  0.5081  1.0000  -1.6861   0.0000   0.0000   0.0000   0.3522
   5.800   1.2976   0.00867   0.00406  -0.1435  0.5029  1.0000  -1.7066   0.0000   0.0000   0.0000   0.3510
   5.900   1.3076   0.00876   0.00413  -0.1434  0.4977  1.0000  -1.7280   0.0000   0.0000   0.0000   0.3499
   6.000   1.3171   0.00887   0.00422  -0.1432  0.4924  1.0000  -1.7494   0.0000   0.0000   0.0000   0.3488
   6.100   1.3269   0.00897   0.00431  -0.1430  0.4871  1.0000  -1.7716   0.0000   0.0000   0.0000   0.3477
   6.200   1.3363   0.00909   0.00441  -0.1427  0.4817  1.0000  -1.7933   0.0000   0.0000   0.0000   0.3466
   6.300   1.3460   0.00919   0.00449  -0.1425  0.4765  1.0000  -1.8174   0.0000   0.0000   0.0000   0.3456
   6.400   1.3552   0.00931   0.00459  -0.1423  0.4711  1.0000  -1.8436   0.0000   0.0000   0.0000   0.3445
   6.500   1.3648   0.00942   0.00469  -0.1421  0.4657  1.0000  -1.8705   0.0000   0.0000   0.0000   0.3435
   6.600   1.3738   0.00955   0.00480  -0.1417  0.4602  1.0000  -1.8977   0.0000   0.0000   0.0000   0.3424
   6.700   1.3831   0.00967   0.00490  -0.1415  0.4546  1.0000  -1.9270   0.0000   0.0000   0.0000   0.3414
   6.800   1.3918   0.00981   0.00501  -0.1411  0.4490  1.0000  -1.9563   0.0000   0.0000   0.0000   0.3403
   6.900   1.4011   0.00993   0.00512  -0.1409  0.4431  1.0000  -1.9865   0.0000   0.0000   0.0000   0.3393
   7.000   1.4094   0.01009   0.00525  -0.1405  0.4371  1.0000  -2.0161   0.0000   0.0000   0.0000   0.3383
   7.100   1.4182   0.01022   0.00537  -0.1401  0.4304  1.0000  -2.0474   0.0000   0.0000   0.0000   0.3373
   7.200   1.4264   0.01038   0.00550  -0.1397  0.4239  1.0000  -2.0779   0.0000   0.0000   0.0000   0.3362
   7.300   1.4343   0.01056   0.00564  -0.1392  0.4170  1.0000  -2.1092   0.0000   0.0000   0.0000   0.3352
   7.400   1.4426   0.01071   0.00578  -0.1388  0.4101  1.0000  -2.1414   0.0000   0.0000   0.0000   0.3342
   7.500   1.4502   0.01089   0.00593  -0.1383  0.4036  1.0000  -2.1727   0.0000   0.0000   0.0000   0.3332
   7.600   1.4580   0.01106   0.00607  -0.1378  0.3969  1.0000  -2.2043   0.0000   0.0000   0.0000   0.3322
   7.700   1.4658   0.01123   0.00622  -0.1373  0.3905  1.0000  -2.2369   0.0000   0.0000   0.0000   0.3312
   7.800   1.4723   0.01143   0.00639  -0.1366  0.3842  1.0000  -2.2680   0.0000   0.0000   0.0000   0.3301
   7.900   1.4794   0.01159   0.00653  -0.1360  0.3775  1.0000  -2.3003   0.0000   0.0000   0.0000   0.3291
   8.000   1.4858   0.01179   0.00671  -0.1352  0.3711  1.0000  -2.3315   0.0000   0.0000   0.0000   0.3281
   8.100   1.4920   0.01200   0.00689  -0.1345  0.3645  1.0000  -2.3625   0.0000   0.0000   0.0000   0.3270
   8.200   1.4987   0.01220   0.00706  -0.1338  0.3581  1.0000  -2.3953   0.0000   0.0000   0.0000   0.3260
   8.300   1.5046   0.01243   0.00727  -0.1330  0.3518  1.0000  -2.4274   0.0000   0.0000   0.0000   0.3250
   8.400   1.5110   0.01265   0.00746  -0.1324  0.3453  1.0000  -2.4604   0.0000   0.0000   0.0000   0.3240
   8.500   1.5170   0.01288   0.00767  -0.1316  0.3392  1.0000  -2.4931   0.0000   0.0000   0.0000   0.3230
   8.600   1.5225   0.01314   0.00790  -0.1308  0.3329  1.0000  -2.5248   0.0000   0.0000   0.0000   0.3220
   8.700   1.5287   0.01337   0.00812  -0.1302  0.3264  1.0000  -2.5629   0.0000   0.0000   0.0000   0.3210
   8.800   1.5341   0.01364   0.00837  -0.1294  0.3202  1.0000  -2.6039   0.0000   0.0000   0.0000   0.3201
   8.900   1.5395   0.01393   0.00862  -0.1286  0.3136  1.0000  -2.6452   0.0000   0.0000   0.0000   0.3191
   9.000   1.5451   0.01420   0.00888  -0.1279  0.3073  1.0000  -2.6873   0.0000   0.0000   0.0000   0.3182
   9.100   1.5500   0.01452   0.00917  -0.1271  0.3011  1.0000  -2.7277   0.0000   0.0000   0.0000   0.3172
   9.200   1.5553   0.01482   0.00945  -0.1263  0.2945  1.0000  -2.7694   0.0000   0.0000   0.0000   0.3163
   9.300   1.5604   0.01513   0.00974  -0.1256  0.2884  1.0000  -2.8108   0.0000   0.0000   0.0000   0.3154
   9.400   1.5648   0.01550   0.01007  -0.1248  0.2822  1.0000  -2.8505   0.0000   0.0000   0.0000   0.3144
   9.500   1.5701   0.01582   0.01038  -0.1241  0.2757  1.0000  -2.8928   0.0000   0.0000   0.0000   0.3136
   9.600   1.5748   0.01618   0.01072  -0.1233  0.2696  1.0000  -2.9335   0.0000   0.0000   0.0000   0.3127
   9.800   1.5839   0.01693   0.01142  -0.1218  0.2568  1.0000  -3.0148   0.0000   0.0000   0.0000   0.3109
   9.900   1.5881   0.01734   0.01180  -0.1211  0.2507  1.0000  -3.0550   0.0000   0.0000   0.0000   0.3100
  10.000   1.5921   0.01776   0.01220  -0.1203  0.2445  1.0000  -3.0945   0.0000   0.0000   0.0000   0.3092
  10.100   1.5966   0.01816   0.01258  -0.1196  0.2383  1.0000  -3.1358   0.0000   0.0000   0.0000   0.3083
  10.200   1.6004   0.01861   0.01300  -0.1188  0.2323  1.0000  -3.1761   0.0000   0.0000   0.0000   0.3075
  10.400   1.6076   0.01955   0.01388  -0.1172  0.2190  1.0000  -3.2587   0.0000   0.0000   0.0000   0.3058
  10.500   1.6109   0.02004   0.01435  -0.1164  0.2124  1.0000  -3.2994   0.0000   0.0000   0.0000   0.3050
  10.600   1.6137   0.02057   0.01484  -0.1156  0.2058  1.0000  -3.3390   0.0000   0.0000   0.0000   0.3042
  10.700   1.6164   0.02111   0.01536  -0.1148  0.1991  1.0000  -3.3782   0.0000   0.0000   0.0000   0.3033
  10.800   1.6196   0.02163   0.01585  -0.1140  0.1925  1.0000  -3.4191   0.0000   0.0000   0.0000   0.3025
  10.900   1.6226   0.02217   0.01636  -0.1132  0.1864  1.0000  -3.4593   0.0000   0.0000   0.0000   0.3017
  11.000   1.6251   0.02274   0.01690  -0.1124  0.1807  1.0000  -3.4986   0.0000   0.0000   0.0000   0.3009
  11.100   1.6281   0.02328   0.01742  -0.1117  0.1750  1.0000  -3.5392   0.0000   0.0000   0.0000   0.3001
  11.200   1.6313   0.02382   0.01794  -0.1109  0.1698  1.0000  -3.5805   0.0000   0.0000   0.0000   0.2994
  11.300   1.6338   0.02440   0.01850  -0.1102  0.1649  1.0000  -3.6201   0.0000   0.0000   0.0000   0.2986
  11.400   1.6370   0.02494   0.01902  -0.1095  0.1598  1.0000  -3.6619   0.0000   0.0000   0.0000   0.2978
  11.500   1.6398   0.02552   0.01958  -0.1087  0.1552  1.0000  -3.7022   0.0000   0.0000   0.0000   0.2971
  11.600   1.6421   0.02612   0.02017  -0.1080  0.1504  1.0000  -3.7417   0.0000   0.0000   0.0000   0.2963
  11.700   1.6451   0.02668   0.02072  -0.1073  0.1458  1.0000  -3.7832   0.0000   0.0000   0.0000   0.2956
  11.800   1.6473   0.02731   0.02133  -0.1065  0.1415  1.0000  -3.8223   0.0000   0.0000   0.0000   0.2949
  11.900   1.6501   0.02790   0.02191  -0.1058  0.1370  1.0000  -3.8635   0.0000   0.0000   0.0000   0.2941
  12.000   1.6525   0.02852   0.02251  -0.1051  0.1330  1.0000  -3.9035   0.0000   0.0000   0.0000   0.2934
  12.100   1.6548   0.02915   0.02313  -0.1044  0.1289  1.0000  -3.9451   0.0000   0.0000   0.0000   0.2927
  12.200   1.6574   0.02976   0.02373  -0.1037  0.1252  1.0000  -3.9882   0.0000   0.0000   0.0000   0.2920
  12.300   1.6594   0.03042   0.02438  -0.1030  0.1214  1.0000  -4.0297   0.0000   0.0000   0.0000   0.2913
  12.400   1.6620   0.03104   0.02500  -0.1024  0.1178  1.0000  -4.0734   0.0000   0.0000   0.0000   0.2906
  12.600   1.6663   0.03236   0.02630  -0.1010  0.1108  1.0000  -4.1582   0.0000   0.0000   0.0000   0.2892
  12.800   1.6705   0.03372   0.02765  -0.0997  0.1042  1.0000  -4.2456   0.0000   0.0000   0.0000   0.2879
  13.000   1.6743   0.03513   0.02905  -0.0984  0.0979  1.0000  -4.3346   0.0000   0.0000   0.0000   0.2865
  13.200   1.6780   0.03659   0.03051  -0.0972  0.0919  1.0000  -4.4237   0.0000   0.0000   0.0000   0.2853
  13.300   1.6792   0.03739   0.03129  -0.0966  0.0891  1.0000  -4.4662   0.0000   0.0000   0.0000   0.2846
  13.400   1.6815   0.03810   0.03201  -0.0960  0.0864  1.0000  -4.5155   0.0000   0.0000   0.0000   0.2840
  13.500   1.6829   0.03889   0.03280  -0.0954  0.0837  1.0000  -4.5612   0.0000   0.0000   0.0000   0.2834
  13.600   1.6848   0.03964   0.03355  -0.0949  0.0811  1.0000  -4.6097   0.0000   0.0000   0.0000   0.2828
  13.700   1.6863   0.04044   0.03434  -0.0943  0.0786  1.0000  -4.6591   0.0000   0.0000   0.0000   0.2822
  13.800   1.6879   0.04123   0.03514  -0.0938  0.0764  1.0000  -4.7089   0.0000   0.0000   0.0000   0.2816
  13.900   1.6897   0.04202   0.03594  -0.0933  0.0740  1.0000  -4.7598   0.0000   0.0000   0.0000   0.2810
  14.100   1.6928   0.04365   0.03757  -0.0922  0.0699  1.0000  -4.8602   0.0000   0.0000   0.0000   0.2799
  14.200   1.6941   0.04450   0.03843  -0.0917  0.0679  1.0000  -4.9095   0.0000   0.0000   0.0000   0.2793
  14.300   1.6953   0.04537   0.03930  -0.0912  0.0662  1.0000  -4.9585   0.0000   0.0000   0.0000   0.2788
  14.400   1.6972   0.04618   0.04012  -0.0908  0.0643  1.0000  -5.0107   0.0000   0.0000   0.0000   0.2782
  14.500   1.6983   0.04707   0.04102  -0.0903  0.0626  1.0000  -5.0590   0.0000   0.0000   0.0000   0.2777
  14.600   1.6993   0.04797   0.04193  -0.0898  0.0611  1.0000  -5.1077   0.0000   0.0000   0.0000   0.2771
  14.700   1.7010   0.04881   0.04278  -0.0894  0.0595  1.0000  -5.1595   0.0000   0.0000   0.0000   0.2766
  14.800   1.7019   0.04973   0.04371  -0.0890  0.0579  1.0000  -5.2079   0.0000   0.0000   0.0000   0.2761
  14.900   1.7023   0.05072   0.04470  -0.0885  0.0566  1.0000  -5.2540   0.0000   0.0000   0.0000   0.2756
  15.000   1.7042   0.05156   0.04557  -0.0881  0.0551  1.0000  -5.3071   0.0000   0.0000   0.0000   0.2751
  15.100   1.7053   0.05249   0.04651  -0.0877  0.0537  1.0000  -5.3565   0.0000   0.0000   0.0000   0.2746
  15.200   1.7054   0.05354   0.04756  -0.0873  0.0525  1.0000  -5.4015   0.0000   0.0000   0.0000   0.2741
  15.300   1.7068   0.05445   0.04849  -0.0870  0.0513  1.0000  -5.4527   0.0000   0.0000   0.0000   0.2736
  15.400   1.7081   0.05538   0.04945  -0.0866  0.0500  1.0000  -5.5034   0.0000   0.0000   0.0000   0.2732
  15.500   1.7085   0.05640   0.05048  -0.0863  0.0488  1.0000  -5.5505   0.0000   0.0000   0.0000   0.2727
  15.600   1.7083   0.05750   0.05158  -0.0859  0.0478  1.0000  -5.5943   0.0000   0.0000   0.0000   0.2722
  15.700   1.7096   0.05844   0.05255  -0.0856  0.0467  1.0000  -5.6456   0.0000   0.0000   0.0000   0.2718
  15.800   1.7107   0.05941   0.05354  -0.0852  0.0457  1.0000  -5.6957   0.0000   0.0000   0.0000   0.2713
  15.900   1.7110   0.06047   0.05461  -0.0849  0.0446  1.0000  -5.7426   0.0000   0.0000   0.0000   0.2709
  16.000   1.7105   0.06163   0.05578  -0.0846  0.0437  1.0000  -5.7852   0.0000   0.0000   0.0000   0.2705
  16.100   1.7112   0.06266   0.05684  -0.0843  0.0428  1.0000  -5.8339   0.0000   0.0000   0.0000   0.2701
  16.200   1.7121   0.06367   0.05788  -0.0841  0.0418  1.0000  -5.8839   0.0000   0.0000   0.0000   0.2697
  16.300   1.7124   0.06477   0.05899  -0.0838  0.0409  1.0000  -5.9310   0.0000   0.0000   0.0000   0.2693
  16.400   1.7120   0.06594   0.06018  -0.0835  0.0400  1.0000  -5.9745   0.0000   0.0000   0.0000   0.2689
  16.600   1.7122   0.06821   0.06249  -0.0831  0.0384  1.0000  -6.0661   0.0000   0.0000   0.0000   0.2681
  16.700   1.7125   0.06932   0.06363  -0.0829  0.0375  1.0000  -6.1132   0.0000   0.0000   0.0000   0.2677
  16.800   1.7121   0.07051   0.06484  -0.0827  0.0367  1.0000  -6.1572   0.0000   0.0000   0.0000   0.2674
  16.900   1.7111   0.07178   0.06612  -0.0824  0.0360  1.0000  -6.1980   0.0000   0.0000   0.0000   0.2670
  17.100   1.7102   0.07423   0.06862  -0.0821  0.0346  1.0000  -6.2842   0.0000   0.0000   0.0000   0.2664
  17.200   1.7102   0.07541   0.06984  -0.0820  0.0339  1.0000  -6.3298   0.0000   0.0000   0.0000   0.2660
  17.300   1.7096   0.07667   0.07112  -0.0818  0.0332  1.0000  -6.3725   0.0000   0.0000   0.0000   0.2657
  17.400   1.7084   0.07801   0.07247  -0.0817  0.0325  1.0000  -6.4122   0.0000   0.0000   0.0000   0.2654
  17.500   1.7064   0.07946   0.07394  -0.0816  0.0319  1.0000  -6.4473   0.0000   0.0000   0.0000   0.2652
  17.600   1.7052   0.08081   0.07532  -0.0815  0.0314  1.0000  -6.4867   0.0000   0.0000   0.0000   0.2649
  17.700   1.7053   0.08201   0.07656  -0.0814  0.0307  1.0000  -6.5326   0.0000   0.0000   0.0000   0.2646
  17.800   1.7048   0.08329   0.07786  -0.0814  0.0301  1.0000  -6.5757   0.0000   0.0000   0.0000   0.2643
  17.900   1.7035   0.08466   0.07926  -0.0813  0.0295  1.0000  -6.6147   0.0000   0.0000   0.0000   0.2641
  18.000   1.7018   0.08611   0.08073  -0.0813  0.0290  1.0000  -6.6509   0.0000   0.0000   0.0000   0.2639
  18.100   1.6994   0.08764   0.08228  -0.0813  0.0285  1.0000  -6.6835   0.0000   0.0000   0.0000   0.2637
  18.200   1.6962   0.08929   0.08396  -0.0813  0.0281  1.0000  -6.7112   0.0000   0.0000   0.0000   0.2635
  18.300   1.6962   0.09052   0.08522  -0.0813  0.0276  1.0000  -6.7567   0.0000   0.0000   0.0000   0.2633
  18.400   1.6954   0.09188   0.08662  -0.0813  0.0271  1.0000  -6.7972   0.0000   0.0000   0.0000   0.2631
  18.500   1.6942   0.09328   0.08805  -0.0814  0.0266  1.0000  -6.8358   0.0000   0.0000   0.0000   0.2629
  18.600   1.6923   0.09479   0.08959  -0.0815  0.0262  1.0000  -6.8710   0.0000   0.0000   0.0000   0.2627
  18.700   1.6902   0.09633   0.09115  -0.0816  0.0258  1.0000  -6.9045   0.0000   0.0000   0.0000   0.2626
  18.800   1.6875   0.09796   0.09281  -0.0817  0.0254  1.0000  -6.9344   0.0000   0.0000   0.0000   0.2625
  18.900   1.6842   0.09969   0.09456  -0.0819  0.0250  1.0000  -6.9604   0.0000   0.0000   0.0000   0.2624
  19.000   1.6810   0.10142   0.09632  -0.0820  0.0247  1.0000  -6.9864   0.0000   0.0000   0.0000   0.2623
  19.100   1.6803   0.10279   0.09774  -0.0822  0.0243  1.0000  -7.0270   0.0000   0.0000   0.0000   0.2622
  19.200   1.6792   0.10422   0.09920  -0.0824  0.0240  1.0000  -7.0648   0.0000   0.0000   0.0000   0.2620
  19.300   1.6774   0.10574   0.10076  -0.0826  0.0236  1.0000  -7.0991   0.0000   0.0000   0.0000   0.2620
  19.400   1.6755   0.10729   0.10234  -0.0828  0.0233  1.0000  -7.1327   0.0000   0.0000   0.0000   0.2619
  19.500   1.6731   0.10893   0.10401  -0.0830  0.0229  1.0000  -7.1625   0.0000   0.0000   0.0000   0.2618
  19.600   1.6706   0.11058   0.10569  -0.0833  0.0226  1.0000  -7.1919   0.0000   0.0000   0.0000   0.2618
  19.700   1.6674   0.11234   0.10747  -0.0837  0.0224  1.0000  -7.2171   0.0000   0.0000   0.0000   0.2618
  19.800   1.6640   0.11414   0.10930  -0.0840  0.0221  1.0000  -7.2403   0.0000   0.0000   0.0000   0.2619
  19.900   1.6597   0.11609   0.11128  -0.0844  0.0218  1.0000  -7.2571   0.0000   0.0000   0.0000   0.2620
  20.000   1.6566   0.11787   0.11310  -0.0848  0.0216  1.0000  -7.2810   0.0000   0.0000   0.0000   0.2621


