xflr5 v6.57

 Calculated polar for: wine

 1 1 Reynolds number fixed          Mach number fixed         

 xtrf =   1.000 (top)        1.000 (bottom)
 Mach =   0.000     Re =     0.940 e 6     Ncrit =   9.000

  alpha     CL        CD       CDp       Cm    Top Xtr Bot Xtr   Cpmin    Chinge    XCp    
 ------- -------- --------- --------- -------- ------- ------- -------- --------- ---------
 -10.000  -0.4611   0.01797   0.01306  -0.1369  0.7958  0.0200  -6.6072   0.0000   0.0000   0.0000  -0.0672
  -9.900  -0.4507   0.01770   0.01274  -0.1370  0.7945  0.0202  -6.5121   0.0000   0.0000   0.0000  -0.0744
  -9.800  -0.4403   0.01743   0.01243  -0.1371  0.7933  0.0204  -6.4175   0.0000   0.0000   0.0000  -0.0820
  -9.700  -0.4298   0.01718   0.01212  -0.1372  0.7921  0.0205  -6.3231   0.0000   0.0000   0.0000  -0.0900
  -9.600  -0.4193   0.01695   0.01183  -0.1373  0.7910  0.0207  -6.2289   0.0000   0.0000   0.0000  -0.0984
  -9.500  -0.4085   0.01672   0.01157  -0.1374  0.7897  0.0208  -6.1410   0.0000   0.0000   0.0000  -0.1075
  -9.400  -0.3977   0.01651   0.01131  -0.1375  0.7883  0.0209  -6.0525   0.0000   0.0000   0.0000  -0.1171
  -9.300  -0.3869   0.01633   0.01109  -0.1376  0.7869  0.0210  -5.9631   0.0000   0.0000   0.0000  -0.1273
  -9.200  -0.3766   0.01596   0.01066  -0.1377  0.7856  0.0212  -5.8853   0.0000   0.0000   0.0000  -0.1375
  -9.100  -0.3671   0.01540   0.01006  -0.1378  0.7843  0.0215  -5.8167   0.0000   0.0000   0.0000  -0.1476
  -9.000  -0.3567   0.01510   0.00974  -0.1379  0.7831  0.0217  -5.7316   0.0000   0.0000   0.0000  -0.1591
  -8.900  -0.3459   0.01491   0.00952  -0.1380  0.7821  0.0219  -5.6409   0.0000   0.0000   0.0000  -0.1717
  -8.800  -0.3350   0.01475   0.00934  -0.1381  0.7809  0.0221  -5.5482   0.0000   0.0000   0.0000  -0.1853
  -8.700  -0.3239   0.01460   0.00918  -0.1382  0.7796  0.0223  -5.4553   0.0000   0.0000   0.0000  -0.2001
  -8.600  -0.3128   0.01445   0.00903  -0.1383  0.7783  0.0226  -5.3633   0.0000   0.0000   0.0000  -0.2160
  -8.500  -0.3017   0.01431   0.00886  -0.1384  0.7770  0.0228  -5.2727   0.0000   0.0000   0.0000  -0.2330
  -8.400  -0.2906   0.01416   0.00869  -0.1385  0.7757  0.0230  -5.1837   0.0000   0.0000   0.0000  -0.2513
  -8.300  -0.2795   0.01400   0.00851  -0.1385  0.7745  0.0233  -5.0964   0.0000   0.0000   0.0000  -0.2710
  -8.200  -0.2685   0.01384   0.00831  -0.1386  0.7734  0.0235  -5.0106   0.0000   0.0000   0.0000  -0.2923
  -8.100  -0.2574   0.01369   0.00812  -0.1387  0.7724  0.0238  -4.9260   0.0000   0.0000   0.0000  -0.3154
  -8.000  -0.2463   0.01354   0.00793  -0.1388  0.7712  0.0240  -4.8416   0.0000   0.0000   0.0000  -0.3408
  -7.900  -0.2351   0.01338   0.00775  -0.1388  0.7699  0.0242  -4.7572   0.0000   0.0000   0.0000  -0.3688
  -7.800  -0.2238   0.01325   0.00758  -0.1389  0.7686  0.0244  -4.6727   0.0000   0.0000   0.0000  -0.3997
  -7.700  -0.2125   0.01313   0.00744  -0.1390  0.7674  0.0245  -4.5880   0.0000   0.0000   0.0000  -0.4341
  -7.600  -0.2018   0.01282   0.00710  -0.1391  0.7661  0.0248  -4.5133   0.0000   0.0000   0.0000  -0.4702
  -7.500  -0.1911   0.01253   0.00679  -0.1392  0.7649  0.0252  -4.4365   0.0000   0.0000   0.0000  -0.5105
  -7.400  -0.1801   0.01235   0.00660  -0.1392  0.7638  0.0255  -4.3538   0.0000   0.0000   0.0000  -0.5570
  -7.300  -0.1689   0.01222   0.00644  -0.1393  0.7628  0.0257  -4.2697   0.0000   0.0000   0.0000  -0.6104
  -7.200  -0.1576   0.01210   0.00631  -0.1394  0.7617  0.0260  -4.1857   0.0000   0.0000   0.0000  -0.6717
  -7.100  -0.1463   0.01198   0.00619  -0.1395  0.7604  0.0263  -4.1024   0.0000   0.0000   0.0000  -0.7430
  -7.000  -0.1349   0.01187   0.00607  -0.1396  0.7591  0.0266  -4.0195   0.0000   0.0000   0.0000  -0.8263
  -6.900  -0.1236   0.01176   0.00595  -0.1397  0.7578  0.0270  -3.9373   0.0000   0.0000   0.0000  -0.9252
  -6.800  -0.1122   0.01166   0.00582  -0.1397  0.7566  0.0274  -3.8559   0.0000   0.0000   0.0000  -1.0442
  -6.700  -0.1008   0.01156   0.00570  -0.1398  0.7554  0.0277  -3.7753   0.0000   0.0000   0.0000  -1.1904
  -6.600  -0.0893   0.01148   0.00559  -0.1399  0.7543  0.0281  -3.6966   0.0000   0.0000   0.0000  -1.3745
  -6.500  -0.0779   0.01141   0.00549  -0.1399  0.7533  0.0283  -3.6228   0.0000   0.0000   0.0000  -1.6133
  -6.400  -0.0669   0.01117   0.00521  -0.1400  0.7523  0.0288  -3.5579   0.0000   0.0000   0.0000  -1.9181
  -6.300  -0.0557   0.01099   0.00504  -0.1401  0.7510  0.0293  -3.4875   0.0000   0.0000   0.0000  -2.3544
  -6.200  -0.0443   0.01087   0.00493  -0.1402  0.7497  0.0297  -3.4147   0.0000   0.0000   0.0000  -3.0224
  -6.100  -0.0329   0.01077   0.00482  -0.1403  0.7484  0.0301  -3.3420   0.0000   0.0000   0.0000  -4.1580
  -6.000  -0.0215   0.01068   0.00472  -0.1404  0.7471  0.0305  -3.2702   0.0000   0.0000   0.0000  -6.5066
  -5.900  -0.0100   0.01059   0.00461  -0.1405  0.7459  0.0310  -3.1992   0.0000   0.0000   0.0000  -14.2322
  -5.800   0.0014   0.01050   0.00451  -0.1405  0.7448  0.0315  -3.1291   0.0000   0.0000   0.0000  100.2545
  -5.700   0.0129   0.01043   0.00441  -0.1406  0.7437  0.0320  -3.0595   0.0000   0.0000   0.0000  11.4566
  -5.600   0.0245   0.01038   0.00432  -0.1407  0.7427  0.0324  -2.9900   0.0000   0.0000   0.0000   6.1740
  -5.500   0.0357   0.01019   0.00414  -0.1408  0.7414  0.0330  -2.9251   0.0000   0.0000   0.0000   4.3089
  -5.400   0.0471   0.01007   0.00402  -0.1409  0.7401  0.0337  -2.8565   0.0000   0.0000   0.0000   3.3270
  -5.300   0.0586   0.00999   0.00395  -0.1409  0.7388  0.0344  -2.7870   0.0000   0.0000   0.0000   2.7234
  -5.200   0.0701   0.00992   0.00387  -0.1410  0.7375  0.0351  -2.7182   0.0000   0.0000   0.0000   2.3170
  -5.100   0.0817   0.00985   0.00379  -0.1411  0.7363  0.0358  -2.6504   0.0000   0.0000   0.0000   2.0248
  -5.000   0.0932   0.00980   0.00371  -0.1412  0.7351  0.0365  -2.5839   0.0000   0.0000   0.0000   1.8046
  -4.900   0.1047   0.00969   0.00359  -0.1413  0.7340  0.0372  -2.5250   0.0000   0.0000   0.0000   1.6345
  -4.800   0.1161   0.00959   0.00348  -0.1413  0.7329  0.0382  -2.4651   0.0000   0.0000   0.0000   1.4983
  -4.700   0.1276   0.00952   0.00341  -0.1414  0.7317  0.0390  -2.4041   0.0000   0.0000   0.0000   1.3856
  -4.600   0.1392   0.00945   0.00334  -0.1415  0.7304  0.0399  -2.3437   0.0000   0.0000   0.0000   1.2914
  -4.500   0.1507   0.00939   0.00327  -0.1416  0.7290  0.0408  -2.2841   0.0000   0.0000   0.0000   1.2113
  -4.400   0.1623   0.00932   0.00319  -0.1417  0.7277  0.0417  -2.2256   0.0000   0.0000   0.0000   1.1429
  -4.300   0.1738   0.00921   0.00309  -0.1418  0.7264  0.0429  -2.1675   0.0000   0.0000   0.0000   1.0840
  -4.200   0.1853   0.00915   0.00303  -0.1419  0.7252  0.0441  -2.1085   0.0000   0.0000   0.0000   1.0320
  -4.100   0.1969   0.00910   0.00296  -0.1419  0.7240  0.0453  -2.0501   0.0000   0.0000   0.0000   0.9860
  -4.000   0.2085   0.00907   0.00291  -0.1420  0.7230  0.0464  -1.9923   0.0000   0.0000   0.0000   0.9450
  -3.900   0.2199   0.00897   0.00283  -0.1421  0.7217  0.0481  -1.9355   0.0000   0.0000   0.0000   0.9088
  -3.800   0.2315   0.00891   0.00278  -0.1422  0.7203  0.0496  -1.8781   0.0000   0.0000   0.0000   0.8759
  -3.700   0.2431   0.00887   0.00273  -0.1423  0.7189  0.0512  -1.8214   0.0000   0.0000   0.0000   0.8460
  -3.600   0.2546   0.00878   0.00265  -0.1424  0.7175  0.0530  -1.7659   0.0000   0.0000   0.0000   0.8190
  -3.500   0.2662   0.00873   0.00260  -0.1424  0.7162  0.0550  -1.7116   0.0000   0.0000   0.0000   0.7943
  -3.400   0.2778   0.00869   0.00255  -0.1425  0.7150  0.0568  -1.6609   0.0000   0.0000   0.0000   0.7715
  -3.300   0.2893   0.00862   0.00248  -0.1426  0.7137  0.0593  -1.6108   0.0000   0.0000   0.0000   0.7508
  -3.200   0.3009   0.00858   0.00244  -0.1427  0.7126  0.0619  -1.5606   0.0000   0.0000   0.0000   0.7315
  -3.100   0.3124   0.00851   0.00239  -0.1428  0.7112  0.0647  -1.5110   0.0000   0.0000   0.0000   0.7137
  -3.000   0.3240   0.00846   0.00235  -0.1429  0.7097  0.0681  -1.4616   0.0000   0.0000   0.0000   0.6972
  -2.900   0.3355   0.00839   0.00230  -0.1430  0.7082  0.0719  -1.4126   0.0000   0.0000   0.0000   0.6818
  -2.800   0.3471   0.00834   0.00226  -0.1431  0.7068  0.0762  -1.3640   0.0000   0.0000   0.0000   0.6674
  -2.700   0.3587   0.00828   0.00222  -0.1431  0.7054  0.0811  -1.3158   0.0000   0.0000   0.0000   0.6539
  -2.600   0.3702   0.00823   0.00217  -0.1432  0.7042  0.0868  -1.2680   0.0000   0.0000   0.0000   0.6414
  -2.500   0.3817   0.00818   0.00214  -0.1433  0.7030  0.0933  -1.2206   0.0000   0.0000   0.0000   0.6295
  -2.400   0.3933   0.00813   0.00210  -0.1434  0.7016  0.1007  -1.1735   0.0000   0.0000   0.0000   0.6184
  -2.300   0.4048   0.00806   0.00208  -0.1435  0.7001  0.1091  -1.1269   0.0000   0.0000   0.0000   0.6079
  -2.200   0.4163   0.00801   0.00205  -0.1436  0.6986  0.1182  -1.0807   0.0000   0.0000   0.0000   0.5980
  -2.100   0.4279   0.00794   0.00202  -0.1437  0.6971  0.1279  -1.0349   0.0000   0.0000   0.0000   0.5886
  -2.000   0.4394   0.00789   0.00200  -0.1438  0.6956  0.1385  -0.9923   0.0000   0.0000   0.0000   0.5798
  -1.900   0.4509   0.00783   0.00197  -0.1439  0.6943  0.1498  -0.9508   0.0000   0.0000   0.0000   0.5714
  -1.800   0.4624   0.00779   0.00195  -0.1440  0.6930  0.1616  -0.9096   0.0000   0.0000   0.0000   0.5634
  -1.700   0.4739   0.00775   0.00193  -0.1441  0.6916  0.1734  -0.8688   0.0000   0.0000   0.0000   0.5557
  -1.600   0.4855   0.00769   0.00192  -0.1442  0.6900  0.1857  -0.8295   0.0000   0.0000   0.0000   0.5485
  -1.500   0.4970   0.00763   0.00191  -0.1443  0.6884  0.1988  -0.8368   0.0000   0.0000   0.0000   0.5416
  -1.400   0.5085   0.00758   0.00189  -0.1444  0.6868  0.2126  -0.8442   0.0000   0.0000   0.0000   0.5350
  -1.300   0.5200   0.00752   0.00188  -0.1445  0.6852  0.2271  -0.8517   0.0000   0.0000   0.0000   0.5287
  -1.200   0.5315   0.00748   0.00187  -0.1446  0.6838  0.2422  -0.8592   0.0000   0.0000   0.0000   0.5226
  -1.100   0.5429   0.00745   0.00185  -0.1447  0.6824  0.2572  -0.8671   0.0000   0.0000   0.0000   0.5168
  -1.000   0.5544   0.00740   0.00185  -0.1448  0.6808  0.2733  -0.8750   0.0000   0.0000   0.0000   0.5113
  -0.900   0.5659   0.00734   0.00185  -0.1449  0.6791  0.2909  -0.8829   0.0000   0.0000   0.0000   0.5060
  -0.800   0.5774   0.00728   0.00185  -0.1450  0.6774  0.3092  -0.8909   0.0000   0.0000   0.0000   0.5009
  -0.700   0.5889   0.00723   0.00184  -0.1451  0.6757  0.3288  -0.8991   0.0000   0.0000   0.0000   0.4960
  -0.600   0.6003   0.00718   0.00184  -0.1452  0.6742  0.3488  -0.9072   0.0000   0.0000   0.0000   0.4912
  -0.500   0.6117   0.00714   0.00184  -0.1453  0.6727  0.3698  -0.9153   0.0000   0.0000   0.0000   0.4867
  -0.400   0.6232   0.00710   0.00184  -0.1454  0.6712  0.3925  -0.9236   0.0000   0.0000   0.0000   0.4823
  -0.300   0.6346   0.00703   0.00185  -0.1455  0.6694  0.4162  -0.9320   0.0000   0.0000   0.0000   0.4781
  -0.200   0.6461   0.00697   0.00186  -0.1456  0.6676  0.4399  -0.9403   0.0000   0.0000   0.0000   0.4740
  -0.100   0.6575   0.00692   0.00187  -0.1457  0.6658  0.4640  -0.9487   0.0000   0.0000   0.0000   0.4701
   0.000   0.6689   0.00687   0.00188  -0.1458  0.6641  0.4882  -0.9571   0.0000   0.0000   0.0000   0.4663
   0.100   0.6802   0.00684   0.00189  -0.1458  0.6625  0.5123  -0.9655   0.0000   0.0000   0.0000   0.4626
   0.200   0.6915   0.00680   0.00190  -0.1459  0.6610  0.5366  -0.9741   0.0000   0.0000   0.0000   0.4590
   0.300   0.7030   0.00675   0.00192  -0.1460  0.6590  0.5608  -0.9828   0.0000   0.0000   0.0000   0.4556
   0.400   0.7143   0.00670   0.00194  -0.1460  0.6570  0.5858  -0.9917   0.0000   0.0000   0.0000   0.4522
   0.500   0.7256   0.00666   0.00196  -0.1461  0.6551  0.6114  -1.0005   0.0000   0.0000   0.0000   0.4489
   0.600   0.7368   0.00662   0.00198  -0.1461  0.6532  0.6370  -1.0095   0.0000   0.0000   0.0000   0.4458
   0.700   0.7479   0.00660   0.00200  -0.1461  0.6515  0.6608  -1.0187   0.0000   0.0000   0.0000   0.4427
   0.800   0.7591   0.00658   0.00202  -0.1461  0.6496  0.6815  -1.0280   0.0000   0.0000   0.0000   0.4397
   0.900   0.7704   0.00655   0.00205  -0.1461  0.6475  0.7005  -1.0373   0.0000   0.0000   0.0000   0.4367
   1.000   0.7816   0.00652   0.00207  -0.1461  0.6454  0.7188  -1.0468   0.0000   0.0000   0.0000   0.4339
   1.100   0.7927   0.00651   0.00209  -0.1461  0.6434  0.7361  -1.0563   0.0000   0.0000   0.0000   0.4311
   1.200   0.8036   0.00650   0.00211  -0.1461  0.6416  0.7533  -1.0658   0.0000   0.0000   0.0000   0.4284
   1.300   0.8146   0.00650   0.00214  -0.1460  0.6397  0.7700  -1.0752   0.0000   0.0000   0.0000   0.4257
   1.400   0.8257   0.00648   0.00216  -0.1460  0.6375  0.7858  -1.0848   0.0000   0.0000   0.0000   0.4231
   1.500   0.8367   0.00646   0.00218  -0.1459  0.6352  0.8010  -1.0947   0.0000   0.0000   0.0000   0.4206
   1.600   0.8474   0.00645   0.00221  -0.1458  0.6330  0.8161  -1.1046   0.0000   0.0000   0.0000   0.4181
   1.700   0.8580   0.00645   0.00223  -0.1457  0.6310  0.8322  -1.1144   0.0000   0.0000   0.0000   0.4157
   1.800   0.8684   0.00643   0.00225  -0.1455  0.6289  0.8486  -1.1241   0.0000   0.0000   0.0000   0.4133
   1.900   0.8787   0.00640   0.00227  -0.1453  0.6265  0.8675  -1.1337   0.0000   0.0000   0.0000   0.4110
   2.000   0.8883   0.00637   0.00229  -0.1449  0.6240  0.8901  -1.1435   0.0000   0.0000   0.0000   0.4086
   2.100   0.8970   0.00633   0.00231  -0.1442  0.6218  0.9194  -1.1528   0.0000   0.0000   0.0000   0.4062
   2.200   0.9101   0.00628   0.00229  -0.1446  0.6196  0.9711  -1.1650   0.0000   0.0000   0.0000   0.4041
   2.300   0.9234   0.00629   0.00230  -0.1450  0.6170  1.0000  -1.1774   0.0000   0.0000   0.0000   0.4022
   2.400   0.9348   0.00631   0.00232  -0.1451  0.6144  1.0000  -1.1887   0.0000   0.0000   0.0000   0.4003
   2.500   0.9461   0.00635   0.00234  -0.1452  0.6118  1.0000  -1.2002   0.0000   0.0000   0.0000   0.3983
   2.600   0.9572   0.00640   0.00236  -0.1452  0.6095  1.0000  -1.2116   0.0000   0.0000   0.0000   0.3964
   2.700   0.9686   0.00643   0.00239  -0.1453  0.6069  1.0000  -1.2235   0.0000   0.0000   0.0000   0.3946
   2.800   0.9799   0.00646   0.00241  -0.1454  0.6041  1.0000  -1.2355   0.0000   0.0000   0.0000   0.3928
   2.900   0.9911   0.00650   0.00243  -0.1454  0.6013  1.0000  -1.2473   0.0000   0.0000   0.0000   0.3910
   3.000   1.0021   0.00655   0.00246  -0.1454  0.5988  1.0000  -1.2591   0.0000   0.0000   0.0000   0.3893
   3.100   1.0135   0.00658   0.00249  -0.1455  0.5960  1.0000  -1.2714   0.0000   0.0000   0.0000   0.3876
   3.200   1.0247   0.00662   0.00252  -0.1455  0.5930  1.0000  -1.2840   0.0000   0.0000   0.0000   0.3860
   3.300   1.0357   0.00666   0.00255  -0.1455  0.5900  1.0000  -1.2966   0.0000   0.0000   0.0000   0.3843
   3.400   1.0466   0.00672   0.00258  -0.1455  0.5873  1.0000  -1.3090   0.0000   0.0000   0.0000   0.3827
   3.500   1.0579   0.00675   0.00262  -0.1456  0.5840  1.0000  -1.3221   0.0000   0.0000   0.0000   0.3812
   3.600   1.0690   0.00680   0.00265  -0.1456  0.5808  1.0000  -1.3350   0.0000   0.0000   0.0000   0.3796
   3.700   1.0797   0.00686   0.00269  -0.1455  0.5777  1.0000  -1.3482   0.0000   0.0000   0.0000   0.3781
   3.800   1.0908   0.00690   0.00272  -0.1456  0.5743  1.0000  -1.3621   0.0000   0.0000   0.0000   0.3766
   3.900   1.1018   0.00695   0.00276  -0.1456  0.5707  1.0000  -1.3762   0.0000   0.0000   0.0000   0.3752
   4.000   1.1125   0.00701   0.00281  -0.1455  0.5673  1.0000  -1.3904   0.0000   0.0000   0.0000   0.3737
   4.100   1.1234   0.00706   0.00285  -0.1455  0.5637  1.0000  -1.4050   0.0000   0.0000   0.0000   0.3723
   4.200   1.1343   0.00712   0.00289  -0.1455  0.5598  1.0000  -1.4199   0.0000   0.0000   0.0000   0.3709
   4.300   1.1448   0.00719   0.00294  -0.1454  0.5562  1.0000  -1.4351   0.0000   0.0000   0.0000   0.3695
   4.400   1.1557   0.00724   0.00298  -0.1455  0.5522  1.0000  -1.4512   0.0000   0.0000   0.0000   0.3682
   4.500   1.1664   0.00730   0.00303  -0.1454  0.5481  1.0000  -1.4676   0.0000   0.0000   0.0000   0.3669
   4.600   1.1768   0.00738   0.00309  -0.1453  0.5443  1.0000  -1.4838   0.0000   0.0000   0.0000   0.3656
   4.700   1.1876   0.00743   0.00314  -0.1453  0.5400  1.0000  -1.5005   0.0000   0.0000   0.0000   0.3643
   4.800   1.1980   0.00751   0.00320  -0.1452  0.5357  1.0000  -1.5169   0.0000   0.0000   0.0000   0.3630
   4.900   1.2086   0.00758   0.00325  -0.1452  0.5315  1.0000  -1.5340   0.0000   0.0000   0.0000   0.3618
   5.000   1.2190   0.00765   0.00331  -0.1451  0.5270  1.0000  -1.5516   0.0000   0.0000   0.0000   0.3605
   5.100   1.2292   0.00774   0.00337  -0.1450  0.5228  1.0000  -1.5689   0.0000   0.0000   0.0000   0.3593
   5.200   1.2398   0.00780   0.00343  -0.1449  0.5182  1.0000  -1.5884   0.0000   0.0000   0.0000   0.3581
   5.300   1.2498   0.00790   0.00350  -0.1448  0.5136  1.0000  -1.6077   0.0000   0.0000   0.0000   0.3569
   5.400   1.2602   0.00797   0.00357  -0.1447  0.5089  1.0000  -1.6278   0.0000   0.0000   0.0000   0.3558
   5.500   1.2702   0.00807   0.00364  -0.1445  0.5037  1.0000  -1.6479   0.0000   0.0000   0.0000   0.3546
   5.600   1.2803   0.00816   0.00372  -0.1444  0.4986  1.0000  -1.6685   0.0000   0.0000   0.0000   0.3535
   5.700   1.2902   0.00826   0.00379  -0.1442  0.4932  1.0000  -1.6889   0.0000   0.0000   0.0000   0.3523
   5.800   1.3001   0.00835   0.00387  -0.1441  0.4879  1.0000  -1.7098   0.0000   0.0000   0.0000   0.3512
   5.900   1.3099   0.00846   0.00396  -0.1439  0.4824  1.0000  -1.7310   0.0000   0.0000   0.0000   0.3501
   6.000   1.3197   0.00856   0.00404  -0.1437  0.4772  1.0000  -1.7529   0.0000   0.0000   0.0000   0.3490
   6.100   1.3294   0.00867   0.00413  -0.1435  0.4717  1.0000  -1.7749   0.0000   0.0000   0.0000   0.3479
   6.200   1.3391   0.00878   0.00422  -0.1433  0.4665  1.0000  -1.7969   0.0000   0.0000   0.0000   0.3468
   6.300   1.3486   0.00889   0.00431  -0.1431  0.4609  1.0000  -1.8213   0.0000   0.0000   0.0000   0.3458
   6.400   1.3581   0.00901   0.00441  -0.1429  0.4556  1.0000  -1.8479   0.0000   0.0000   0.0000   0.3447
   6.500   1.3674   0.00913   0.00451  -0.1426  0.4499  1.0000  -1.8746   0.0000   0.0000   0.0000   0.3437
   6.600   1.3768   0.00925   0.00460  -0.1424  0.4443  1.0000  -1.9024   0.0000   0.0000   0.0000   0.3426
   6.700   1.3858   0.00938   0.00472  -0.1421  0.4385  1.0000  -1.9315   0.0000   0.0000   0.0000   0.3416
   6.800   1.3951   0.00950   0.00482  -0.1418  0.4325  1.0000  -1.9618   0.0000   0.0000   0.0000   0.3406
   6.900   1.4036   0.00966   0.00495  -0.1414  0.4261  1.0000  -1.9909   0.0000   0.0000   0.0000   0.3395
   7.000   1.4124   0.00980   0.00506  -0.1411  0.4192  1.0000  -2.0217   0.0000   0.0000   0.0000   0.3385
   7.100   1.4209   0.00995   0.00519  -0.1407  0.4125  1.0000  -2.0524   0.0000   0.0000   0.0000   0.3375
   7.200   1.4289   0.01013   0.00533  -0.1403  0.4055  1.0000  -2.0829   0.0000   0.0000   0.0000   0.3365
   7.300   1.4375   0.01028   0.00545  -0.1399  0.3985  1.0000  -2.1155   0.0000   0.0000   0.0000   0.3355
   7.400   1.4456   0.01044   0.00559  -0.1395  0.3920  1.0000  -2.1474   0.0000   0.0000   0.0000   0.3345
   7.500   1.4535   0.01062   0.00573  -0.1390  0.3854  1.0000  -2.1791   0.0000   0.0000   0.0000   0.3335
   7.600   1.4617   0.01078   0.00587  -0.1386  0.3788  1.0000  -2.2114   0.0000   0.0000   0.0000   0.3325
   7.700   1.4691   0.01096   0.00603  -0.1380  0.3723  1.0000  -2.2439   0.0000   0.0000   0.0000   0.3315
   7.800   1.4765   0.01114   0.00618  -0.1375  0.3654  1.0000  -2.2765   0.0000   0.0000   0.0000   0.3305
   7.900   1.4833   0.01132   0.00633  -0.1368  0.3589  1.0000  -2.3084   0.0000   0.0000   0.0000   0.3294
   8.000   1.4896   0.01152   0.00650  -0.1360  0.3526  1.0000  -2.3394   0.0000   0.0000   0.0000   0.3284
   8.100   1.4966   0.01170   0.00666  -0.1354  0.3459  1.0000  -2.3718   0.0000   0.0000   0.0000   0.3274
   8.200   1.5031   0.01191   0.00684  -0.1347  0.3398  1.0000  -2.4047   0.0000   0.0000   0.0000   0.3263
   8.300   1.5093   0.01213   0.00703  -0.1340  0.3334  1.0000  -2.4374   0.0000   0.0000   0.0000   0.3253
   8.400   1.5159   0.01233   0.00721  -0.1333  0.3271  1.0000  -2.4711   0.0000   0.0000   0.0000   0.3243
   8.500   1.5217   0.01257   0.00743  -0.1326  0.3208  1.0000  -2.5033   0.0000   0.0000   0.0000   0.3233
   8.600   1.5277   0.01281   0.00764  -0.1318  0.3141  1.0000  -2.5360   0.0000   0.0000   0.0000   0.3224
   8.700   1.5336   0.01305   0.00786  -0.1311  0.3078  1.0000  -2.5768   0.0000   0.0000   0.0000   0.3214
   8.800   1.5389   0.01333   0.00810  -0.1303  0.3016  1.0000  -2.6177   0.0000   0.0000   0.0000   0.3204
   8.900   1.5449   0.01358   0.00834  -0.1296  0.2951  1.0000  -2.6604   0.0000   0.0000   0.0000   0.3195
   9.000   1.5503   0.01386   0.00859  -0.1288  0.2889  1.0000  -2.7021   0.0000   0.0000   0.0000   0.3185
   9.200   1.5609   0.01445   0.00913  -0.1273  0.2763  1.0000  -2.7856   0.0000   0.0000   0.0000   0.3166
   9.300   1.5659   0.01477   0.00943  -0.1266  0.2702  1.0000  -2.8268   0.0000   0.0000   0.0000   0.3157
   9.400   1.5707   0.01511   0.00973  -0.1258  0.2638  1.0000  -2.8676   0.0000   0.0000   0.0000   0.3148
   9.500   1.5759   0.01543   0.01004  -0.1251  0.2575  1.0000  -2.9096   0.0000   0.0000   0.0000   0.3139
   9.600   1.5805   0.01579   0.01037  -0.1243  0.2514  1.0000  -2.9503   0.0000   0.0000   0.0000   0.3130
   9.700   1.5851   0.01616   0.01071  -0.1235  0.2451  1.0000  -2.9911   0.0000   0.0000   0.0000   0.3121
   9.800   1.5899   0.01651   0.01105  -0.1228  0.2390  1.0000  -3.0328   0.0000   0.0000   0.0000   0.3112
   9.900   1.5941   0.01692   0.01142  -0.1220  0.2330  1.0000  -3.0730   0.0000   0.0000   0.0000   0.3104
  10.000   1.5982   0.01733   0.01181  -0.1213  0.2265  1.0000  -3.1130   0.0000   0.0000   0.0000   0.3095
  10.100   1.6024   0.01774   0.01220  -0.1205  0.2198  1.0000  -3.1535   0.0000   0.0000   0.0000   0.3087
  10.200   1.6061   0.01819   0.01262  -0.1197  0.2133  1.0000  -3.1948   0.0000   0.0000   0.0000   0.3078
  10.300   1.6093   0.01868   0.01306  -0.1189  0.2066  1.0000  -3.2351   0.0000   0.0000   0.0000   0.3069
  10.400   1.6126   0.01917   0.01352  -0.1181  0.1996  1.0000  -3.2759   0.0000   0.0000   0.0000   0.3061
  10.500   1.6161   0.01964   0.01397  -0.1173  0.1929  1.0000  -3.3172   0.0000   0.0000   0.0000   0.3053
  10.600   1.6193   0.02015   0.01444  -0.1165  0.1866  1.0000  -3.3580   0.0000   0.0000   0.0000   0.3044
  10.700   1.6223   0.02067   0.01493  -0.1157  0.1806  1.0000  -3.3981   0.0000   0.0000   0.0000   0.3036
  10.800   1.6257   0.02117   0.01541  -0.1149  0.1748  1.0000  -3.4396   0.0000   0.0000   0.0000   0.3028
  10.900   1.6293   0.02166   0.01588  -0.1142  0.1695  1.0000  -3.4820   0.0000   0.0000   0.0000   0.3020
  11.000   1.6323   0.02219   0.01639  -0.1134  0.1646  1.0000  -3.5227   0.0000   0.0000   0.0000   0.3012
  11.100   1.6358   0.02270   0.01688  -0.1127  0.1594  1.0000  -3.5650   0.0000   0.0000   0.0000   0.3005
  11.200   1.6391   0.02322   0.01738  -0.1120  0.1547  1.0000  -3.6068   0.0000   0.0000   0.0000   0.2997
  11.400   1.6453   0.02430   0.01843  -0.1105  0.1452  1.0000  -3.6900   0.0000   0.0000   0.0000   0.2982
  11.500   1.6481   0.02487   0.01898  -0.1098  0.1409  1.0000  -3.7307   0.0000   0.0000   0.0000   0.2974
  11.600   1.6511   0.02542   0.01952  -0.1091  0.1364  1.0000  -3.7723   0.0000   0.0000   0.0000   0.2967
  11.700   1.6541   0.02598   0.02006  -0.1084  0.1324  1.0000  -3.8141   0.0000   0.0000   0.0000   0.2959
  11.800   1.6567   0.02657   0.02064  -0.1076  0.1284  1.0000  -3.8547   0.0000   0.0000   0.0000   0.2952
  11.900   1.6599   0.02712   0.02118  -0.1070  0.1246  1.0000  -3.8974   0.0000   0.0000   0.0000   0.2944
  12.100   1.6654   0.02830   0.02234  -0.1056  0.1172  1.0000  -3.9834   0.0000   0.0000   0.0000   0.2930
  12.200   1.6676   0.02894   0.02297  -0.1049  0.1137  1.0000  -4.0253   0.0000   0.0000   0.0000   0.2923
  12.300   1.6706   0.02952   0.02354  -0.1042  0.1101  1.0000  -4.0704   0.0000   0.0000   0.0000   0.2916
  12.400   1.6726   0.03017   0.02418  -0.1035  0.1069  1.0000  -4.1124   0.0000   0.0000   0.0000   0.2909
  12.500   1.6754   0.03078   0.02478  -0.1029  0.1035  1.0000  -4.1570   0.0000   0.0000   0.0000   0.2902
  12.600   1.6773   0.03145   0.02545  -0.1022  0.1004  1.0000  -4.1987   0.0000   0.0000   0.0000   0.2895
  12.700   1.6799   0.03208   0.02608  -0.1015  0.0972  1.0000  -4.2453   0.0000   0.0000   0.0000   0.2888
  12.800   1.6816   0.03278   0.02677  -0.1008  0.0943  1.0000  -4.2893   0.0000   0.0000   0.0000   0.2881
  12.900   1.6842   0.03342   0.02741  -0.1002  0.0912  1.0000  -4.3365   0.0000   0.0000   0.0000   0.2875
  13.000   1.6858   0.03415   0.02813  -0.0996  0.0885  1.0000  -4.3799   0.0000   0.0000   0.0000   0.2868
  13.100   1.6883   0.03480   0.02878  -0.0990  0.0856  1.0000  -4.4275   0.0000   0.0000   0.0000   0.2862
  13.200   1.6897   0.03557   0.02954  -0.0983  0.0830  1.0000  -4.4705   0.0000   0.0000   0.0000   0.2855
  13.300   1.6924   0.03623   0.03020  -0.0978  0.0803  1.0000  -4.5213   0.0000   0.0000   0.0000   0.2849
  13.400   1.6940   0.03699   0.03095  -0.0972  0.0779  1.0000  -4.5684   0.0000   0.0000   0.0000   0.2843
  13.500   1.6964   0.03769   0.03166  -0.0966  0.0756  1.0000  -4.6215   0.0000   0.0000   0.0000   0.2836
  13.600   1.6983   0.03843   0.03240  -0.0960  0.0732  1.0000  -4.6729   0.0000   0.0000   0.0000   0.2830
  13.700   1.7001   0.03919   0.03317  -0.0955  0.0712  1.0000  -4.7237   0.0000   0.0000   0.0000   0.2824
  13.800   1.7023   0.03992   0.03390  -0.0950  0.0691  1.0000  -4.7767   0.0000   0.0000   0.0000   0.2818
  13.900   1.7037   0.04073   0.03471  -0.0944  0.0671  1.0000  -4.8262   0.0000   0.0000   0.0000   0.2812
  14.000   1.7058   0.04148   0.03547  -0.0939  0.0653  1.0000  -4.8794   0.0000   0.0000   0.0000   0.2807
  14.100   1.7077   0.04225   0.03625  -0.0934  0.0635  1.0000  -4.9315   0.0000   0.0000   0.0000   0.2801
  14.200   1.7088   0.04311   0.03711  -0.0928  0.0618  1.0000  -4.9802   0.0000   0.0000   0.0000   0.2795
  14.300   1.7111   0.04387   0.03788  -0.0924  0.0601  1.0000  -5.0345   0.0000   0.0000   0.0000   0.2790
  14.400   1.7128   0.04468   0.03870  -0.0919  0.0585  1.0000  -5.0865   0.0000   0.0000   0.0000   0.2784
  14.500   1.7137   0.04558   0.03960  -0.0914  0.0570  1.0000  -5.1346   0.0000   0.0000   0.0000   0.2778
  14.600   1.7158   0.04637   0.04041  -0.0910  0.0555  1.0000  -5.1886   0.0000   0.0000   0.0000   0.2773
  14.700   1.7175   0.04720   0.04124  -0.0905  0.0541  1.0000  -5.2410   0.0000   0.0000   0.0000   0.2768
  14.800   1.7183   0.04812   0.04217  -0.0901  0.0527  1.0000  -5.2894   0.0000   0.0000   0.0000   0.2762
  14.900   1.7197   0.04899   0.04305  -0.0896  0.0515  1.0000  -5.3405   0.0000   0.0000   0.0000   0.2757
  15.000   1.7216   0.04982   0.04390  -0.0892  0.0502  1.0000  -5.3942   0.0000   0.0000   0.0000   0.2752
  15.100   1.7226   0.05074   0.04483  -0.0888  0.0490  1.0000  -5.4442   0.0000   0.0000   0.0000   0.2747
  15.200   1.7230   0.05173   0.04582  -0.0884  0.0478  1.0000  -5.4913   0.0000   0.0000   0.0000   0.2742
  15.300   1.7249   0.05258   0.04670  -0.0880  0.0468  1.0000  -5.5452   0.0000   0.0000   0.0000   0.2737
  15.400   1.7264   0.05348   0.04762  -0.0877  0.0456  1.0000  -5.5976   0.0000   0.0000   0.0000   0.2732
  15.500   1.7273   0.05444   0.04858  -0.0873  0.0446  1.0000  -5.6476   0.0000   0.0000   0.0000   0.2728
  15.600   1.7274   0.05549   0.04964  -0.0869  0.0436  1.0000  -5.6936   0.0000   0.0000   0.0000   0.2723
  15.700   1.7288   0.05641   0.05058  -0.0866  0.0426  1.0000  -5.7461   0.0000   0.0000   0.0000   0.2718
  15.800   1.7303   0.05732   0.05152  -0.0862  0.0416  1.0000  -5.7989   0.0000   0.0000   0.0000   0.2714
  15.900   1.7308   0.05834   0.05255  -0.0859  0.0407  1.0000  -5.8474   0.0000   0.0000   0.0000   0.2709
  16.000   1.7309   0.05941   0.05363  -0.0855  0.0398  1.0000  -5.8936   0.0000   0.0000   0.0000   0.2705
  16.100   1.7312   0.06047   0.05470  -0.0852  0.0389  1.0000  -5.9411   0.0000   0.0000   0.0000   0.2700
  16.200   1.7325   0.06143   0.05569  -0.0850  0.0381  1.0000  -5.9937   0.0000   0.0000   0.0000   0.2696
  16.300   1.7333   0.06244   0.05673  -0.0847  0.0372  1.0000  -6.0438   0.0000   0.0000   0.0000   0.2692
  16.400   1.7333   0.06356   0.05786  -0.0844  0.0364  1.0000  -6.0899   0.0000   0.0000   0.0000   0.2688
  16.500   1.7327   0.06475   0.05906  -0.0841  0.0356  1.0000  -6.1333   0.0000   0.0000   0.0000   0.2684
  16.600   1.7332   0.06581   0.06015  -0.0839  0.0349  1.0000  -6.1821   0.0000   0.0000   0.0000   0.2680
  16.700   1.7340   0.06686   0.06122  -0.0836  0.0341  1.0000  -6.2325   0.0000   0.0000   0.0000   0.2676
  16.800   1.7343   0.06796   0.06235  -0.0834  0.0334  1.0000  -6.2804   0.0000   0.0000   0.0000   0.2672
  16.900   1.7339   0.06915   0.06355  -0.0832  0.0327  1.0000  -6.3248   0.0000   0.0000   0.0000   0.2669
  17.000   1.7327   0.07043   0.06484  -0.0830  0.0320  1.0000  -6.3654   0.0000   0.0000   0.0000   0.2665
  17.100   1.7323   0.07163   0.06607  -0.0828  0.0314  1.0000  -6.4096   0.0000   0.0000   0.0000   0.2662
  17.200   1.7328   0.07273   0.06720  -0.0826  0.0307  1.0000  -6.4587   0.0000   0.0000   0.0000   0.2658
  17.300   1.7328   0.07389   0.06838  -0.0824  0.0301  1.0000  -6.5056   0.0000   0.0000   0.0000   0.2654
  17.400   1.7322   0.07513   0.06965  -0.0823  0.0294  1.0000  -6.5489   0.0000   0.0000   0.0000   0.2651
  17.500   1.7310   0.07646   0.07099  -0.0821  0.0288  1.0000  -6.5892   0.0000   0.0000   0.0000   0.2648
  17.600   1.7292   0.07786   0.07241  -0.0820  0.0283  1.0000  -6.6264   0.0000   0.0000   0.0000   0.2645
  17.700   1.7286   0.07914   0.07372  -0.0819  0.0278  1.0000  -6.6695   0.0000   0.0000   0.0000   0.2642
  17.800   1.7287   0.08031   0.07492  -0.0818  0.0273  1.0000  -6.7170   0.0000   0.0000   0.0000   0.2639
  17.900   1.7281   0.08159   0.07623  -0.0817  0.0267  1.0000  -6.7603   0.0000   0.0000   0.0000   0.2637
  18.000   1.7271   0.08293   0.07759  -0.0817  0.0262  1.0000  -6.8016   0.0000   0.0000   0.0000   0.2634
  18.100   1.7256   0.08432   0.07901  -0.0816  0.0257  1.0000  -6.8403   0.0000   0.0000   0.0000   0.2631
  18.200   1.7235   0.08580   0.08051  -0.0816  0.0253  1.0000  -6.8751   0.0000   0.0000   0.0000   0.2629
  18.300   1.7207   0.08737   0.08210  -0.0815  0.0249  1.0000  -6.9062   0.0000   0.0000   0.0000   0.2627
  18.400   1.7200   0.08869   0.08346  -0.0815  0.0245  1.0000  -6.9484   0.0000   0.0000   0.0000   0.2625
  18.500   1.7195   0.08997   0.08477  -0.0815  0.0241  1.0000  -6.9924   0.0000   0.0000   0.0000   0.2622
  18.600   1.7184   0.09136   0.08619  -0.0816  0.0236  1.0000  -7.0323   0.0000   0.0000   0.0000   0.2620
  18.700   1.7169   0.09279   0.08765  -0.0816  0.0233  1.0000  -7.0706   0.0000   0.0000   0.0000   0.2618
  18.800   1.7152   0.09427   0.08915  -0.0817  0.0229  1.0000  -7.1071   0.0000   0.0000   0.0000   0.2617
  18.900   1.7129   0.09582   0.09073  -0.0818  0.0225  1.0000  -7.1406   0.0000   0.0000   0.0000   0.2615
  19.000   1.7104   0.09741   0.09235  -0.0819  0.0222  1.0000  -7.1725   0.0000   0.0000   0.0000   0.2614
  19.100   1.7070   0.09914   0.09410  -0.0820  0.0219  1.0000  -7.1987   0.0000   0.0000   0.0000   0.2613
  19.200   1.7044   0.10077   0.09577  -0.0822  0.0216  1.0000  -7.2288   0.0000   0.0000   0.0000   0.2612
  19.300   1.7034   0.10218   0.09721  -0.0823  0.0213  1.0000  -7.2688   0.0000   0.0000   0.0000   0.2611
  19.400   1.7023   0.10359   0.09866  -0.0825  0.0210  1.0000  -7.3080   0.0000   0.0000   0.0000   0.2609
  19.500   1.7005   0.10511   0.10021  -0.0827  0.0208  1.0000  -7.3432   0.0000   0.0000   0.0000   0.2608
  19.600   1.6986   0.10665   0.10178  -0.0829  0.0205  1.0000  -7.3773   0.0000   0.0000   0.0000   0.2607
  19.700   1.6964   0.10823   0.10339  -0.0831  0.0202  1.0000  -7.4096   0.0000   0.0000   0.0000   0.2607
  19.800   1.6939   0.10986   0.10506  -0.0834  0.0200  1.0000  -7.4402   0.0000   0.0000   0.0000   0.2606
  19.900   1.6914   0.11151   0.10673  -0.0837  0.0197  1.0000  -7.4699   0.0000   0.0000   0.0000   0.2606
  20.000   1.6884   0.11324   0.10850  -0.0840  0.0195  1.0000  -7.4966   0.0000   0.0000   0.0000   0.2606


