xflr5 v6.57

 Calculated polar for: wine

 1 1 Reynolds number fixed          Mach number fixed         

 xtrf =   1.000 (top)        1.000 (bottom)
 Mach =   0.000     Re =     0.660 e 6     Ncrit =   9.000

  alpha     CL        CD       CDp       Cm    Top Xtr Bot Xtr   Cpmin    Chinge    XCp    
 ------- -------- --------- --------- -------- ------- ------- -------- --------- ---------
 -10.000  -0.4434   0.02327   0.01860  -0.1367  0.8147  0.0223  -6.2601   0.0000   0.0000   0.0000  -0.0792
  -9.900  -0.4339   0.02286   0.01814  -0.1369  0.8133  0.0225  -6.1761   0.0000   0.0000   0.0000  -0.0865
  -9.800  -0.4243   0.02245   0.01767  -0.1371  0.8119  0.0226  -6.0927   0.0000   0.0000   0.0000  -0.0942
  -9.700  -0.4147   0.02205   0.01721  -0.1373  0.8107  0.0228  -6.0098   0.0000   0.0000   0.0000  -0.1023
  -9.600  -0.4051   0.02164   0.01671  -0.1374  0.8096  0.0230  -5.9291   0.0000   0.0000   0.0000  -0.1107
  -9.500  -0.3953   0.02120   0.01621  -0.1376  0.8081  0.0232  -5.8501   0.0000   0.0000   0.0000  -0.1197
  -9.400  -0.3856   0.02075   0.01569  -0.1378  0.8066  0.0234  -5.7723   0.0000   0.0000   0.0000  -0.1292
  -9.300  -0.3757   0.02031   0.01518  -0.1379  0.8051  0.0237  -5.6949   0.0000   0.0000   0.0000  -0.1392
  -9.200  -0.3657   0.01990   0.01469  -0.1381  0.8037  0.0239  -5.6170   0.0000   0.0000   0.0000  -0.1499
  -9.100  -0.3556   0.01954   0.01424  -0.1382  0.8025  0.0241  -5.5434   0.0000   0.0000   0.0000  -0.1613
  -9.000  -0.3452   0.01924   0.01385  -0.1383  0.8013  0.0243  -5.4688   0.0000   0.0000   0.0000  -0.1737
  -8.900  -0.3345   0.01901   0.01352  -0.1384  0.8002  0.0245  -5.3910   0.0000   0.0000   0.0000  -0.1871
  -8.800  -0.3250   0.01840   0.01283  -0.1386  0.7988  0.0248  -5.3305   0.0000   0.0000   0.0000  -0.2000
  -8.700  -0.3153   0.01787   0.01229  -0.1387  0.7974  0.0251  -5.2594   0.0000   0.0000   0.0000  -0.2139
  -8.600  -0.3049   0.01758   0.01199  -0.1388  0.7960  0.0253  -5.1760   0.0000   0.0000   0.0000  -0.2297
  -8.500  -0.2942   0.01735   0.01175  -0.1389  0.7946  0.0255  -5.0905   0.0000   0.0000   0.0000  -0.2470
  -8.400  -0.2835   0.01715   0.01152  -0.1390  0.7934  0.0258  -5.0058   0.0000   0.0000   0.0000  -0.2657
  -8.300  -0.2727   0.01693   0.01127  -0.1391  0.7923  0.0260  -4.9233   0.0000   0.0000   0.0000  -0.2859
  -8.200  -0.2619   0.01671   0.01101  -0.1392  0.7912  0.0262  -4.8425   0.0000   0.0000   0.0000  -0.3079
  -8.100  -0.2511   0.01649   0.01075  -0.1392  0.7900  0.0265  -4.7633   0.0000   0.0000   0.0000  -0.3317
  -8.000  -0.2403   0.01625   0.01048  -0.1393  0.7886  0.0268  -4.6854   0.0000   0.0000   0.0000  -0.3578
  -7.900  -0.2295   0.01601   0.01020  -0.1394  0.7872  0.0271  -4.6083   0.0000   0.0000   0.0000  -0.3864
  -7.800  -0.2186   0.01578   0.00993  -0.1395  0.7859  0.0274  -4.5321   0.0000   0.0000   0.0000  -0.4179
  -7.700  -0.2076   0.01556   0.00966  -0.1395  0.7846  0.0276  -4.4563   0.0000   0.0000   0.0000  -0.4529
  -7.600  -0.1966   0.01536   0.00940  -0.1396  0.7835  0.0279  -4.3805   0.0000   0.0000   0.0000  -0.4920
  -7.500  -0.1855   0.01518   0.00916  -0.1397  0.7824  0.0282  -4.3040   0.0000   0.0000   0.0000  -0.5362
  -7.400  -0.1743   0.01504   0.00896  -0.1397  0.7814  0.0284  -4.2265   0.0000   0.0000   0.0000  -0.5865
  -7.300  -0.1642   0.01454   0.00844  -0.1398  0.7801  0.0288  -4.1622   0.0000   0.0000   0.0000  -0.6379
  -7.200  -0.1534   0.01429   0.00819  -0.1399  0.7787  0.0291  -4.0847   0.0000   0.0000   0.0000  -0.7001
  -7.100  -0.1424   0.01412   0.00803  -0.1400  0.7773  0.0295  -4.0037   0.0000   0.0000   0.0000  -0.7735
  -7.000  -0.1312   0.01398   0.00788  -0.1401  0.7760  0.0299  -3.9226   0.0000   0.0000   0.0000  -0.8603
  -6.900  -0.1201   0.01385   0.00773  -0.1401  0.7748  0.0303  -3.8428   0.0000   0.0000   0.0000  -0.9636
  -6.800  -0.1088   0.01371   0.00757  -0.1402  0.7737  0.0307  -3.7647   0.0000   0.0000   0.0000  -1.0884
  -6.700  -0.0976   0.01357   0.00739  -0.1403  0.7727  0.0311  -3.6885   0.0000   0.0000   0.0000  -1.2422
  -6.600  -0.0863   0.01343   0.00720  -0.1403  0.7717  0.0315  -3.6136   0.0000   0.0000   0.0000  -1.4366
  -6.500  -0.0751   0.01328   0.00703  -0.1404  0.7703  0.0319  -3.5402   0.0000   0.0000   0.0000  -1.6875
  -6.400  -0.0638   0.01315   0.00687  -0.1404  0.7689  0.0322  -3.4732   0.0000   0.0000   0.0000  -2.0297
  -6.300  -0.0528   0.01292   0.00662  -0.1405  0.7676  0.0326  -3.4102   0.0000   0.0000   0.0000  -2.5042
  -6.200  -0.0420   0.01265   0.00635  -0.1406  0.7663  0.0332  -3.3462   0.0000   0.0000   0.0000  -3.2142
  -6.100  -0.0308   0.01249   0.00619  -0.1407  0.7651  0.0336  -3.2770   0.0000   0.0000   0.0000  -4.4708
  -6.000  -0.0195   0.01237   0.00605  -0.1407  0.7640  0.0341  -3.2074   0.0000   0.0000   0.0000  -7.2026
  -5.900  -0.0082   0.01226   0.00592  -0.1408  0.7630  0.0346  -3.1387   0.0000   0.0000   0.0000  -17.5565
  -5.800   0.0032   0.01215   0.00579  -0.1409  0.7620  0.0352  -3.0713   0.0000   0.0000   0.0000  45.3879
  -5.700   0.0145   0.01203   0.00566  -0.1409  0.7606  0.0358  -3.0050   0.0000   0.0000   0.0000  10.2627
  -5.600   0.0259   0.01194   0.00554  -0.1410  0.7592  0.0364  -2.9388   0.0000   0.0000   0.0000   5.8584
  -5.500   0.0373   0.01182   0.00540  -0.1411  0.7578  0.0369  -2.8740   0.0000   0.0000   0.0000   4.1506
  -5.400   0.0483   0.01160   0.00519  -0.1412  0.7565  0.0377  -2.8102   0.0000   0.0000   0.0000   3.2595
  -5.300   0.0596   0.01149   0.00508  -0.1412  0.7553  0.0384  -2.7428   0.0000   0.0000   0.0000   2.6864
  -5.200   0.0711   0.01140   0.00498  -0.1413  0.7542  0.0392  -2.6762   0.0000   0.0000   0.0000   2.2942
  -5.100   0.0825   0.01131   0.00486  -0.1414  0.7531  0.0400  -2.6112   0.0000   0.0000   0.0000   2.0098
  -5.000   0.0941   0.01124   0.00475  -0.1415  0.7521  0.0408  -2.5472   0.0000   0.0000   0.0000   1.7943
  -4.900   0.1055   0.01115   0.00466  -0.1415  0.7507  0.0415  -2.4866   0.0000   0.0000   0.0000   1.6269
  -4.800   0.1166   0.01095   0.00448  -0.1416  0.7493  0.0425  -2.4310   0.0000   0.0000   0.0000   1.4958
  -4.700   0.1280   0.01085   0.00438  -0.1417  0.7479  0.0434  -2.3719   0.0000   0.0000   0.0000   1.3849
  -4.600   0.1394   0.01077   0.00430  -0.1418  0.7466  0.0444  -2.3135   0.0000   0.0000   0.0000   1.2915
  -4.500   0.1509   0.01069   0.00420  -0.1418  0.7454  0.0455  -2.2561   0.0000   0.0000   0.0000   1.2119
  -4.400   0.1625   0.01062   0.00409  -0.1419  0.7443  0.0465  -2.1996   0.0000   0.0000   0.0000   1.1435
  -4.300   0.1739   0.01048   0.00397  -0.1420  0.7432  0.0478  -2.1427   0.0000   0.0000   0.0000   1.0851
  -4.200   0.1854   0.01042   0.00390  -0.1421  0.7421  0.0492  -2.0847   0.0000   0.0000   0.0000   1.0332
  -4.100   0.1968   0.01036   0.00383  -0.1421  0.7406  0.0506  -2.0282   0.0000   0.0000   0.0000   0.9876
  -4.000   0.2082   0.01026   0.00374  -0.1422  0.7392  0.0521  -1.9732   0.0000   0.0000   0.0000   0.9471
  -3.900   0.2196   0.01016   0.00365  -0.1423  0.7378  0.0537  -1.9172   0.0000   0.0000   0.0000   0.9109
  -3.800   0.2311   0.01010   0.00358  -0.1424  0.7365  0.0554  -1.8615   0.0000   0.0000   0.0000   0.8779
  -3.700   0.2427   0.01004   0.00350  -0.1424  0.7352  0.0571  -1.8069   0.0000   0.0000   0.0000   0.8479
  -3.600   0.2542   0.00993   0.00340  -0.1425  0.7341  0.0591  -1.7524   0.0000   0.0000   0.0000   0.8210
  -3.500   0.2658   0.00988   0.00333  -0.1426  0.7330  0.0613  -1.6984   0.0000   0.0000   0.0000   0.7960
  -3.400   0.2773   0.00981   0.00326  -0.1427  0.7318  0.0637  -1.6494   0.0000   0.0000   0.0000   0.7734
  -3.300   0.2887   0.00973   0.00321  -0.1428  0.7303  0.0665  -1.6000   0.0000   0.0000   0.0000   0.7527
  -3.200   0.3001   0.00966   0.00315  -0.1429  0.7288  0.0695  -1.5514   0.0000   0.0000   0.0000   0.7334
  -3.100   0.3116   0.00958   0.00309  -0.1429  0.7274  0.0730  -1.5026   0.0000   0.0000   0.0000   0.7156
  -3.000   0.3231   0.00951   0.00302  -0.1430  0.7260  0.0768  -1.4544   0.0000   0.0000   0.0000   0.6990
  -2.900   0.3347   0.00945   0.00296  -0.1431  0.7248  0.0813  -1.4063   0.0000   0.0000   0.0000   0.6835
  -2.800   0.3462   0.00938   0.00290  -0.1432  0.7236  0.0866  -1.3585   0.0000   0.0000   0.0000   0.6690
  -2.700   0.3578   0.00932   0.00285  -0.1433  0.7225  0.0927  -1.3108   0.0000   0.0000   0.0000   0.6555
  -2.600   0.3692   0.00924   0.00281  -0.1434  0.7209  0.0997  -1.2641   0.0000   0.0000   0.0000   0.6430
  -2.500   0.3806   0.00917   0.00278  -0.1435  0.7193  0.1079  -1.2175   0.0000   0.0000   0.0000   0.6312
  -2.400   0.3921   0.00910   0.00274  -0.1436  0.7178  0.1173  -1.1712   0.0000   0.0000   0.0000   0.6200
  -2.300   0.4035   0.00903   0.00270  -0.1437  0.7164  0.1278  -1.1251   0.0000   0.0000   0.0000   0.6095
  -2.200   0.4150   0.00895   0.00266  -0.1438  0.7150  0.1393  -1.0793   0.0000   0.0000   0.0000   0.5996
  -2.100   0.4266   0.00889   0.00262  -0.1439  0.7138  0.1517  -1.0339   0.0000   0.0000   0.0000   0.5901
  -2.000   0.4382   0.00884   0.00259  -0.1440  0.7127  0.1644  -0.9921   0.0000   0.0000   0.0000   0.5812
  -1.900   0.4495   0.00877   0.00258  -0.1441  0.7111  0.1778  -0.9510   0.0000   0.0000   0.0000   0.5728
  -1.800   0.4609   0.00871   0.00256  -0.1442  0.7094  0.1916  -0.9103   0.0000   0.0000   0.0000   0.5648
  -1.700   0.4723   0.00864   0.00254  -0.1442  0.7079  0.2059  -0.8698   0.0000   0.0000   0.0000   0.5571
  -1.600   0.4838   0.00858   0.00252  -0.1443  0.7064  0.2214  -0.8297   0.0000   0.0000   0.0000   0.5499
  -1.500   0.4953   0.00852   0.00250  -0.1444  0.7050  0.2371  -0.8345   0.0000   0.0000   0.0000   0.5429
  -1.400   0.5068   0.00847   0.00248  -0.1445  0.7037  0.2537  -0.8420   0.0000   0.0000   0.0000   0.5362
  -1.300   0.5184   0.00842   0.00246  -0.1447  0.7025  0.2708  -0.8495   0.0000   0.0000   0.0000   0.5299
  -1.200   0.5297   0.00835   0.00246  -0.1447  0.7008  0.2893  -0.8570   0.0000   0.0000   0.0000   0.5239
  -1.100   0.5410   0.00829   0.00246  -0.1448  0.6991  0.3086  -0.8648   0.0000   0.0000   0.0000   0.5181
  -0.900   0.5639   0.00816   0.00245  -0.1450  0.6958  0.3508  -0.8805   0.0000   0.0000   0.0000   0.5072
  -0.800   0.5753   0.00810   0.00244  -0.1451  0.6943  0.3733  -0.8885   0.0000   0.0000   0.0000   0.5020
  -0.700   0.5867   0.00804   0.00243  -0.1452  0.6930  0.3972  -0.8967   0.0000   0.0000   0.0000   0.4971
  -0.600   0.5981   0.00799   0.00243  -0.1453  0.6915  0.4222  -0.9048   0.0000   0.0000   0.0000   0.4923
  -0.500   0.6094   0.00792   0.00245  -0.1454  0.6896  0.4474  -0.9127   0.0000   0.0000   0.0000   0.4878
  -0.400   0.6207   0.00786   0.00246  -0.1454  0.6878  0.4738  -0.9209   0.0000   0.0000   0.0000   0.4834
  -0.300   0.6320   0.00780   0.00246  -0.1455  0.6861  0.4999  -0.9292   0.0000   0.0000   0.0000   0.4791
  -0.200   0.6433   0.00774   0.00247  -0.1455  0.6845  0.5261  -0.9376   0.0000   0.0000   0.0000   0.4750
  -0.100   0.6546   0.00769   0.00248  -0.1456  0.6831  0.5519  -0.9459   0.0000   0.0000   0.0000   0.4710
   0.000   0.6660   0.00765   0.00249  -0.1456  0.6817  0.5776  -0.9543   0.0000   0.0000   0.0000   0.4671
   0.100   0.6770   0.00760   0.00252  -0.1456  0.6798  0.6037  -0.9626   0.0000   0.0000   0.0000   0.4634
   0.200   0.6881   0.00754   0.00254  -0.1456  0.6779  0.6304  -0.9710   0.0000   0.0000   0.0000   0.4598
   0.300   0.6992   0.00750   0.00256  -0.1456  0.6761  0.6568  -0.9796   0.0000   0.0000   0.0000   0.4562
   0.400   0.7102   0.00746   0.00258  -0.1456  0.6744  0.6808  -0.9883   0.0000   0.0000   0.0000   0.4528
   0.500   0.7213   0.00744   0.00260  -0.1455  0.6729  0.7025  -0.9970   0.0000   0.0000   0.0000   0.4494
   0.600   0.7324   0.00743   0.00261  -0.1455  0.6713  0.7226  -1.0060   0.0000   0.0000   0.0000   0.4462
   0.700   0.7432   0.00739   0.00264  -0.1454  0.6692  0.7409  -1.0150   0.0000   0.0000   0.0000   0.4430
   0.800   0.7541   0.00737   0.00266  -0.1453  0.6672  0.7591  -1.0240   0.0000   0.0000   0.0000   0.4399
   0.900   0.7648   0.00734   0.00268  -0.1452  0.6653  0.7769  -1.0331   0.0000   0.0000   0.0000   0.4369
   1.000   0.7755   0.00732   0.00269  -0.1450  0.6635  0.7941  -1.0423   0.0000   0.0000   0.0000   0.4340
   1.100   0.7862   0.00731   0.00270  -0.1449  0.6618  0.8114  -1.0516   0.0000   0.0000   0.0000   0.4311
   1.200   0.7966   0.00729   0.00273  -0.1447  0.6599  0.8285  -1.0607   0.0000   0.0000   0.0000   0.4283
   1.300   0.8068   0.00725   0.00275  -0.1444  0.6577  0.8460  -1.0696   0.0000   0.0000   0.0000   0.4255
   1.400   0.8166   0.00722   0.00276  -0.1441  0.6555  0.8646  -1.0785   0.0000   0.0000   0.0000   0.4228
   1.500   0.8260   0.00718   0.00277  -0.1436  0.6536  0.8861  -1.0874   0.0000   0.0000   0.0000   0.4201
   1.600   0.8350   0.00714   0.00276  -0.1430  0.6519  0.9127  -1.0963   0.0000   0.0000   0.0000   0.4174
   1.700   0.8467   0.00709   0.00275  -0.1430  0.6500  0.9532  -1.1068   0.0000   0.0000   0.0000   0.4149
   1.800   0.8625   0.00706   0.00274  -0.1440  0.6475  1.0000  -1.1197   0.0000   0.0000   0.0000   0.4128
   1.900   0.8739   0.00709   0.00275  -0.1441  0.6453  1.0000  -1.1300   0.0000   0.0000   0.0000   0.4106
   2.000   0.8853   0.00712   0.00276  -0.1442  0.6431  1.0000  -1.1408   0.0000   0.0000   0.0000   0.4084
   2.100   0.8967   0.00715   0.00277  -0.1442  0.6412  1.0000  -1.1518   0.0000   0.0000   0.0000   0.4063
   2.200   0.9081   0.00719   0.00279  -0.1443  0.6390  1.0000  -1.1627   0.0000   0.0000   0.0000   0.4042
   2.300   0.9194   0.00721   0.00281  -0.1444  0.6364  1.0000  -1.1738   0.0000   0.0000   0.0000   0.4022
   2.400   0.9306   0.00724   0.00283  -0.1444  0.6339  1.0000  -1.1850   0.0000   0.0000   0.0000   0.4002
   2.500   0.9419   0.00727   0.00284  -0.1445  0.6317  1.0000  -1.1965   0.0000   0.0000   0.0000   0.3983
   2.600   0.9532   0.00732   0.00286  -0.1445  0.6296  1.0000  -1.2080   0.0000   0.0000   0.0000   0.3964
   2.700   0.9644   0.00734   0.00289  -0.1446  0.6268  1.0000  -1.2197   0.0000   0.0000   0.0000   0.3945
   2.800   0.9756   0.00737   0.00291  -0.1446  0.6242  1.0000  -1.2315   0.0000   0.0000   0.0000   0.3927
   2.900   0.9867   0.00741   0.00293  -0.1446  0.6217  1.0000  -1.2434   0.0000   0.0000   0.0000   0.3909
   3.100   1.0090   0.00748   0.00298  -0.1447  0.6167  1.0000  -1.2673   0.0000   0.0000   0.0000   0.3875
   3.200   1.0201   0.00752   0.00301  -0.1447  0.6138  1.0000  -1.2799   0.0000   0.0000   0.0000   0.3858
   3.300   1.0312   0.00756   0.00304  -0.1447  0.6112  1.0000  -1.2924   0.0000   0.0000   0.0000   0.3842
   3.400   1.0421   0.00762   0.00307  -0.1447  0.6088  1.0000  -1.3049   0.0000   0.0000   0.0000   0.3826
   3.500   1.0533   0.00765   0.00311  -0.1447  0.6057  1.0000  -1.3178   0.0000   0.0000   0.0000   0.3810
   3.600   1.0643   0.00768   0.00314  -0.1447  0.6027  1.0000  -1.3307   0.0000   0.0000   0.0000   0.3795
   3.700   1.0751   0.00774   0.00317  -0.1447  0.5999  1.0000  -1.3439   0.0000   0.0000   0.0000   0.3779
   3.800   1.0860   0.00779   0.00321  -0.1447  0.5971  1.0000  -1.3576   0.0000   0.0000   0.0000   0.3764
   3.900   1.0970   0.00782   0.00325  -0.1447  0.5938  1.0000  -1.3716   0.0000   0.0000   0.0000   0.3750
   4.000   1.1078   0.00787   0.00329  -0.1447  0.5906  1.0000  -1.3858   0.0000   0.0000   0.0000   0.3735
   4.200   1.1294   0.00798   0.00337  -0.1446  0.5841  1.0000  -1.4151   0.0000   0.0000   0.0000   0.3707
   4.300   1.1401   0.00803   0.00341  -0.1446  0.5806  1.0000  -1.4304   0.0000   0.0000   0.0000   0.3693
   4.400   1.1506   0.00810   0.00346  -0.1445  0.5774  1.0000  -1.4461   0.0000   0.0000   0.0000   0.3679
   4.500   1.1614   0.00814   0.00351  -0.1445  0.5737  1.0000  -1.4624   0.0000   0.0000   0.0000   0.3666
   4.600   1.1720   0.00820   0.00356  -0.1444  0.5699  1.0000  -1.4787   0.0000   0.0000   0.0000   0.3653
   4.800   1.1931   0.00833   0.00366  -0.1443  0.5625  1.0000  -1.5116   0.0000   0.0000   0.0000   0.3627
   4.900   1.2035   0.00839   0.00372  -0.1442  0.5585  1.0000  -1.5285   0.0000   0.0000   0.0000   0.3615
   5.000   1.2137   0.00847   0.00378  -0.1440  0.5548  1.0000  -1.5458   0.0000   0.0000   0.0000   0.3602
   5.100   1.2243   0.00853   0.00383  -0.1440  0.5505  1.0000  -1.5634   0.0000   0.0000   0.0000   0.3590
   5.200   1.2344   0.00861   0.00390  -0.1438  0.5464  1.0000  -1.5821   0.0000   0.0000   0.0000   0.3578
   5.300   1.2447   0.00868   0.00396  -0.1437  0.5422  1.0000  -1.6015   0.0000   0.0000   0.0000   0.3566
   5.400   1.2549   0.00876   0.00403  -0.1436  0.5378  1.0000  -1.6214   0.0000   0.0000   0.0000   0.3554
   5.500   1.2648   0.00885   0.00410  -0.1434  0.5338  1.0000  -1.6410   0.0000   0.0000   0.0000   0.3542
   5.600   1.2751   0.00892   0.00417  -0.1433  0.5291  1.0000  -1.6619   0.0000   0.0000   0.0000   0.3531
   5.700   1.2849   0.00902   0.00425  -0.1431  0.5247  1.0000  -1.6822   0.0000   0.0000   0.0000   0.3520
   5.800   1.2949   0.00910   0.00432  -0.1430  0.5199  1.0000  -1.7030   0.0000   0.0000   0.0000   0.3508
   5.900   1.3046   0.00920   0.00440  -0.1428  0.5149  1.0000  -1.7240   0.0000   0.0000   0.0000   0.3497
   6.000   1.3143   0.00930   0.00449  -0.1426  0.5100  1.0000  -1.7456   0.0000   0.0000   0.0000   0.3486
   6.100   1.3239   0.00940   0.00458  -0.1424  0.5047  1.0000  -1.7675   0.0000   0.0000   0.0000   0.3475
   6.200   1.3334   0.00951   0.00467  -0.1421  0.4996  1.0000  -1.7893   0.0000   0.0000   0.0000   0.3464
   6.300   1.3429   0.00961   0.00476  -0.1419  0.4942  1.0000  -1.8127   0.0000   0.0000   0.0000   0.3453
   6.400   1.3521   0.00973   0.00486  -0.1416  0.4892  1.0000  -1.8387   0.0000   0.0000   0.0000   0.3443
   6.500   1.3615   0.00984   0.00496  -0.1414  0.4837  1.0000  -1.8652   0.0000   0.0000   0.0000   0.3432
   6.600   1.3706   0.00997   0.00506  -0.1411  0.4786  1.0000  -1.8924   0.0000   0.0000   0.0000   0.3422
   6.700   1.3798   0.01008   0.00516  -0.1408  0.4730  1.0000  -1.9210   0.0000   0.0000   0.0000   0.3411
   6.800   1.3886   0.01022   0.00528  -0.1405  0.4678  1.0000  -1.9505   0.0000   0.0000   0.0000   0.3401
   6.900   1.3975   0.01034   0.00539  -0.1401  0.4621  1.0000  -1.9803   0.0000   0.0000   0.0000   0.3390
   7.000   1.4062   0.01048   0.00551  -0.1398  0.4566  1.0000  -2.0100   0.0000   0.0000   0.0000   0.3380
   7.100   1.4147   0.01062   0.00564  -0.1394  0.4507  1.0000  -2.0408   0.0000   0.0000   0.0000   0.3370
   7.200   1.4232   0.01077   0.00576  -0.1390  0.4447  1.0000  -2.0715   0.0000   0.0000   0.0000   0.3360
   7.300   1.4310   0.01094   0.00590  -0.1385  0.4384  1.0000  -2.1025   0.0000   0.0000   0.0000   0.3349
   7.400   1.4392   0.01109   0.00604  -0.1381  0.4317  1.0000  -2.1345   0.0000   0.0000   0.0000   0.3339
   7.500   1.4467   0.01127   0.00619  -0.1375  0.4252  1.0000  -2.1654   0.0000   0.0000   0.0000   0.3329
   7.600   1.4542   0.01144   0.00634  -0.1370  0.4183  1.0000  -2.1966   0.0000   0.0000   0.0000   0.3319
   7.700   1.4617   0.01162   0.00650  -0.1365  0.4118  1.0000  -2.2283   0.0000   0.0000   0.0000   0.3309
   7.800   1.4679   0.01182   0.00667  -0.1357  0.4056  1.0000  -2.2588   0.0000   0.0000   0.0000   0.3298
   7.900   1.4750   0.01198   0.00682  -0.1350  0.3991  1.0000  -2.2910   0.0000   0.0000   0.0000   0.3288
   8.000   1.4812   0.01218   0.00699  -0.1343  0.3930  1.0000  -2.3218   0.0000   0.0000   0.0000   0.3277
   8.100   1.4876   0.01238   0.00717  -0.1336  0.3864  1.0000  -2.3529   0.0000   0.0000   0.0000   0.3267
   8.200   1.4940   0.01259   0.00736  -0.1328  0.3800  1.0000  -2.3846   0.0000   0.0000   0.0000   0.3256
   8.300   1.4994   0.01284   0.00757  -0.1320  0.3737  1.0000  -2.4157   0.0000   0.0000   0.0000   0.3246
   8.400   1.5059   0.01305   0.00777  -0.1313  0.3671  1.0000  -2.4490   0.0000   0.0000   0.0000   0.3236
   8.500   1.5115   0.01329   0.00799  -0.1305  0.3609  1.0000  -2.4808   0.0000   0.0000   0.0000   0.3226
   8.600   1.5170   0.01355   0.00823  -0.1297  0.3545  1.0000  -2.5124   0.0000   0.0000   0.0000   0.3216
   8.700   1.5229   0.01380   0.00846  -0.1290  0.3482  1.0000  -2.5461   0.0000   0.0000   0.0000   0.3206
   8.800   1.5279   0.01409   0.00873  -0.1282  0.3422  1.0000  -2.5860   0.0000   0.0000   0.0000   0.3196
   8.900   1.5337   0.01435   0.00897  -0.1275  0.3356  1.0000  -2.6282   0.0000   0.0000   0.0000   0.3187
   9.000   1.5388   0.01465   0.00925  -0.1267  0.3294  1.0000  -2.6690   0.0000   0.0000   0.0000   0.3177
   9.100   1.5436   0.01498   0.00955  -0.1259  0.3230  1.0000  -2.7089   0.0000   0.0000   0.0000   0.3168
   9.200   1.5490   0.01527   0.00983  -0.1252  0.3165  1.0000  -2.7508   0.0000   0.0000   0.0000   0.3159
   9.300   1.5536   0.01562   0.01015  -0.1244  0.3104  1.0000  -2.7907   0.0000   0.0000   0.0000   0.3149
   9.400   1.5584   0.01596   0.01047  -0.1236  0.3039  1.0000  -2.8313   0.0000   0.0000   0.0000   0.3140
   9.500   1.5633   0.01631   0.01080  -0.1229  0.2976  1.0000  -2.8723   0.0000   0.0000   0.0000   0.3131
   9.600   1.5674   0.01670   0.01117  -0.1221  0.2914  1.0000  -2.9114   0.0000   0.0000   0.0000   0.3122
   9.700   1.5721   0.01707   0.01152  -0.1214  0.2849  1.0000  -2.9524   0.0000   0.0000   0.0000   0.3114
   9.800   1.5766   0.01746   0.01189  -0.1206  0.2787  1.0000  -2.9928   0.0000   0.0000   0.0000   0.3105
  10.000   1.5848   0.01829   0.01267  -0.1191  0.2660  1.0000  -3.0724   0.0000   0.0000   0.0000   0.3088
  10.100   1.5888   0.01873   0.01309  -0.1183  0.2598  1.0000  -3.1118   0.0000   0.0000   0.0000   0.3079
  10.300   1.5965   0.01963   0.01394  -0.1168  0.2473  1.0000  -3.1922   0.0000   0.0000   0.0000   0.3062
  10.400   1.6000   0.02011   0.01440  -0.1160  0.2413  1.0000  -3.2332   0.0000   0.0000   0.0000   0.3054
  10.500   1.6031   0.02062   0.01488  -0.1152  0.2352  1.0000  -3.2732   0.0000   0.0000   0.0000   0.3046
  10.600   1.6067   0.02110   0.01535  -0.1145  0.2286  1.0000  -3.3149   0.0000   0.0000   0.0000   0.3038
  10.700   1.6097   0.02163   0.01585  -0.1137  0.2222  1.0000  -3.3548   0.0000   0.0000   0.0000   0.3030
  10.800   1.6121   0.02221   0.01639  -0.1129  0.2158  1.0000  -3.3933   0.0000   0.0000   0.0000   0.3021
  10.900   1.6150   0.02275   0.01692  -0.1121  0.2091  1.0000  -3.4330   0.0000   0.0000   0.0000   0.3013
  11.000   1.6177   0.02332   0.01745  -0.1113  0.2025  1.0000  -3.4725   0.0000   0.0000   0.0000   0.3005
  11.100   1.6200   0.02391   0.01802  -0.1105  0.1963  1.0000  -3.5110   0.0000   0.0000   0.0000   0.2998
  11.300   1.6248   0.02511   0.01916  -0.1089  0.1842  1.0000  -3.5887   0.0000   0.0000   0.0000   0.2982
  11.400   1.6272   0.02571   0.01974  -0.1082  0.1787  1.0000  -3.6278   0.0000   0.0000   0.0000   0.2974
  11.500   1.6290   0.02635   0.02036  -0.1074  0.1734  1.0000  -3.6653   0.0000   0.0000   0.0000   0.2967
  11.600   1.6319   0.02692   0.02092  -0.1067  0.1682  1.0000  -3.7062   0.0000   0.0000   0.0000   0.2959
  11.700   1.6342   0.02755   0.02153  -0.1059  0.1634  1.0000  -3.7452   0.0000   0.0000   0.0000   0.2952
  11.800   1.6363   0.02819   0.02215  -0.1052  0.1586  1.0000  -3.7839   0.0000   0.0000   0.0000   0.2945
  11.900   1.6389   0.02880   0.02275  -0.1045  0.1539  1.0000  -3.8240   0.0000   0.0000   0.0000   0.2937
  12.000   1.6404   0.02949   0.02342  -0.1037  0.1494  1.0000  -3.8612   0.0000   0.0000   0.0000   0.2930
  12.100   1.6429   0.03011   0.02403  -0.1030  0.1448  1.0000  -3.9015   0.0000   0.0000   0.0000   0.2923
  12.200   1.6448   0.03078   0.02469  -0.1023  0.1406  1.0000  -3.9421   0.0000   0.0000   0.0000   0.2916
  12.300   1.6466   0.03146   0.02536  -0.1016  0.1362  1.0000  -3.9827   0.0000   0.0000   0.0000   0.2909
  12.400   1.6487   0.03213   0.02602  -0.1009  0.1322  1.0000  -4.0245   0.0000   0.0000   0.0000   0.2902
  12.500   1.6501   0.03286   0.02674  -0.1002  0.1282  1.0000  -4.0637   0.0000   0.0000   0.0000   0.2895
  12.600   1.6525   0.03351   0.02739  -0.0996  0.1243  1.0000  -4.1065   0.0000   0.0000   0.0000   0.2888
  12.700   1.6536   0.03428   0.02814  -0.0988  0.1208  1.0000  -4.1450   0.0000   0.0000   0.0000   0.2881
  12.800   1.6561   0.03494   0.02880  -0.0983  0.1170  1.0000  -4.1892   0.0000   0.0000   0.0000   0.2875
  12.900   1.6573   0.03572   0.02957  -0.0976  0.1137  1.0000  -4.2306   0.0000   0.0000   0.0000   0.2868
  13.000   1.6595   0.03641   0.03027  -0.0970  0.1101  1.0000  -4.2760   0.0000   0.0000   0.0000   0.2862
  13.100   1.6607   0.03721   0.03105  -0.0964  0.1070  1.0000  -4.3178   0.0000   0.0000   0.0000   0.2855
  13.200   1.6628   0.03793   0.03178  -0.0958  0.1036  1.0000  -4.3629   0.0000   0.0000   0.0000   0.2849
  13.300   1.6639   0.03875   0.03259  -0.0952  0.1006  1.0000  -4.4042   0.0000   0.0000   0.0000   0.2843
  13.400   1.6659   0.03950   0.03333  -0.0946  0.0975  1.0000  -4.4492   0.0000   0.0000   0.0000   0.2837
  13.500   1.6665   0.04036   0.03419  -0.0940  0.0947  1.0000  -4.4916   0.0000   0.0000   0.0000   0.2831
  13.600   1.6687   0.04111   0.03494  -0.0935  0.0917  1.0000  -4.5402   0.0000   0.0000   0.0000   0.2825
  13.700   1.6692   0.04200   0.03583  -0.0929  0.0890  1.0000  -4.5825   0.0000   0.0000   0.0000   0.2819
  13.800   1.6712   0.04277   0.03661  -0.0924  0.0862  1.0000  -4.6308   0.0000   0.0000   0.0000   0.2813
  13.900   1.6720   0.04366   0.03750  -0.0918  0.0837  1.0000  -4.6760   0.0000   0.0000   0.0000   0.2807
  14.000   1.6736   0.04449   0.03833  -0.0913  0.0812  1.0000  -4.7255   0.0000   0.0000   0.0000   0.2802
  14.100   1.6748   0.04536   0.03921  -0.0908  0.0787  1.0000  -4.7735   0.0000   0.0000   0.0000   0.2796
  14.200   1.6756   0.04627   0.04012  -0.0903  0.0765  1.0000  -4.8202   0.0000   0.0000   0.0000   0.2791
  14.300   1.6772   0.04712   0.04098  -0.0899  0.0742  1.0000  -4.8699   0.0000   0.0000   0.0000   0.2785
  14.400   1.6775   0.04809   0.04194  -0.0894  0.0722  1.0000  -4.9145   0.0000   0.0000   0.0000   0.2780
  14.500   1.6790   0.04895   0.04282  -0.0889  0.0703  1.0000  -4.9645   0.0000   0.0000   0.0000   0.2774
  14.600   1.6801   0.04986   0.04374  -0.0885  0.0683  1.0000  -5.0127   0.0000   0.0000   0.0000   0.2769
  14.700   1.6800   0.05090   0.04478  -0.0880  0.0667  1.0000  -5.0556   0.0000   0.0000   0.0000   0.2764
  14.800   1.6818   0.05175   0.04565  -0.0877  0.0649  1.0000  -5.1074   0.0000   0.0000   0.0000   0.2759
  14.900   1.6826   0.05271   0.04662  -0.0872  0.0632  1.0000  -5.1548   0.0000   0.0000   0.0000   0.2754
  15.100   1.6840   0.05469   0.04862  -0.0865  0.0602  1.0000  -5.2483   0.0000   0.0000   0.0000   0.2745
  15.200   1.6847   0.05568   0.04963  -0.0861  0.0587  1.0000  -5.2957   0.0000   0.0000   0.0000   0.2740
  15.300   1.6845   0.05677   0.05073  -0.0857  0.0573  1.0000  -5.3387   0.0000   0.0000   0.0000   0.2735
  15.400   1.6851   0.05779   0.05177  -0.0854  0.0560  1.0000  -5.3853   0.0000   0.0000   0.0000   0.2731
  15.500   1.6861   0.05878   0.05278  -0.0850  0.0547  1.0000  -5.4338   0.0000   0.0000   0.0000   0.2726
  15.600   1.6862   0.05984   0.05385  -0.0847  0.0534  1.0000  -5.4789   0.0000   0.0000   0.0000   0.2722
  15.700   1.6854   0.06105   0.05507  -0.0844  0.0523  1.0000  -5.5189   0.0000   0.0000   0.0000   0.2718
  15.800   1.6864   0.06205   0.05610  -0.0841  0.0511  1.0000  -5.5678   0.0000   0.0000   0.0000   0.2713
  15.900   1.6871   0.06309   0.05716  -0.0838  0.0499  1.0000  -5.6155   0.0000   0.0000   0.0000   0.2709
  16.000   1.6868   0.06425   0.05833  -0.0835  0.0488  1.0000  -5.6587   0.0000   0.0000   0.0000   0.2705
  16.100   1.6857   0.06550   0.05959  -0.0832  0.0479  1.0000  -5.6980   0.0000   0.0000   0.0000   0.2702
  16.200   1.6862   0.06659   0.06071  -0.0830  0.0469  1.0000  -5.7446   0.0000   0.0000   0.0000   0.2698
  16.300   1.6868   0.06766   0.06182  -0.0828  0.0458  1.0000  -5.7920   0.0000   0.0000   0.0000   0.2694
  16.400   1.6866   0.06883   0.06300  -0.0826  0.0448  1.0000  -5.8357   0.0000   0.0000   0.0000   0.2690
  16.500   1.6854   0.07013   0.06432  -0.0823  0.0440  1.0000  -5.8742   0.0000   0.0000   0.0000   0.2687
  16.600   1.6841   0.07144   0.06564  -0.0821  0.0431  1.0000  -5.9123   0.0000   0.0000   0.0000   0.2683
  16.700   1.6849   0.07252   0.06676  -0.0820  0.0422  1.0000  -5.9606   0.0000   0.0000   0.0000   0.2680
  16.800   1.6848   0.07370   0.06797  -0.0818  0.0413  1.0000  -6.0049   0.0000   0.0000   0.0000   0.2676
  16.900   1.6840   0.07498   0.06926  -0.0816  0.0404  1.0000  -6.0456   0.0000   0.0000   0.0000   0.2673
  17.000   1.6823   0.07639   0.07069  -0.0815  0.0397  1.0000  -6.0813   0.0000   0.0000   0.0000   0.2670
  17.100   1.6808   0.07777   0.07209  -0.0814  0.0390  1.0000  -6.1182   0.0000   0.0000   0.0000   0.2668
  17.200   1.6812   0.07893   0.07329  -0.0813  0.0382  1.0000  -6.1646   0.0000   0.0000   0.0000   0.2664
  17.300   1.6808   0.08018   0.07457  -0.0812  0.0374  1.0000  -6.2073   0.0000   0.0000   0.0000   0.2662
  17.400   1.6797   0.08154   0.07595  -0.0811  0.0366  1.0000  -6.2460   0.0000   0.0000   0.0000   0.2659
  17.500   1.6777   0.08301   0.07744  -0.0810  0.0360  1.0000  -6.2805   0.0000   0.0000   0.0000   0.2657
  17.600   1.6748   0.08461   0.07906  -0.0810  0.0354  1.0000  -6.3093   0.0000   0.0000   0.0000   0.2655
  17.700   1.6744   0.08588   0.08037  -0.0809  0.0348  1.0000  -6.3516   0.0000   0.0000   0.0000   0.2652
  17.800   1.6741   0.08715   0.08168  -0.0809  0.0341  1.0000  -6.3941   0.0000   0.0000   0.0000   0.2650
  17.900   1.6728   0.08856   0.08311  -0.0809  0.0334  1.0000  -6.4315   0.0000   0.0000   0.0000   0.2647
  18.000   1.6712   0.09001   0.08459  -0.0809  0.0328  1.0000  -6.4673   0.0000   0.0000   0.0000   0.2645
  18.100   1.6686   0.09161   0.08621  -0.0810  0.0323  1.0000  -6.4974   0.0000   0.0000   0.0000   0.2644
  18.200   1.6652   0.09331   0.08793  -0.0811  0.0318  1.0000  -6.5234   0.0000   0.0000   0.0000   0.2643
  18.300   1.6635   0.09483   0.08948  -0.0812  0.0313  1.0000  -6.5573   0.0000   0.0000   0.0000   0.2641
  18.400   1.6630   0.09615   0.09085  -0.0812  0.0307  1.0000  -6.5987   0.0000   0.0000   0.0000   0.2639
  18.500   1.6619   0.09758   0.09232  -0.0813  0.0301  1.0000  -6.6360   0.0000   0.0000   0.0000   0.2638
  18.600   1.6601   0.09911   0.09387  -0.0815  0.0296  1.0000  -6.6699   0.0000   0.0000   0.0000   0.2637
  18.700   1.6579   0.10070   0.09548  -0.0816  0.0292  1.0000  -6.7013   0.0000   0.0000   0.0000   0.2636
  18.800   1.6548   0.10241   0.09722  -0.0818  0.0287  1.0000  -6.7279   0.0000   0.0000   0.0000   0.2635
  18.900   1.6511   0.10422   0.09905  -0.0821  0.0284  1.0000  -6.7498   0.0000   0.0000   0.0000   0.2635
  19.000   1.6475   0.10602   0.10089  -0.0823  0.0280  1.0000  -6.7719   0.0000   0.0000   0.0000   0.2635
  19.100   1.6468   0.10741   0.10231  -0.0825  0.0276  1.0000  -6.8107   0.0000   0.0000   0.0000   0.2634
  19.200   1.6454   0.10891   0.10385  -0.0827  0.0271  1.0000  -6.8453   0.0000   0.0000   0.0000   0.2633
  19.300   1.6439   0.11043   0.10541  -0.0830  0.0267  1.0000  -6.8793   0.0000   0.0000   0.0000   0.2633
  19.400   1.6417   0.11206   0.10708  -0.0833  0.0263  1.0000  -6.9092   0.0000   0.0000   0.0000   0.2632
  19.500   1.6393   0.11372   0.10876  -0.0836  0.0260  1.0000  -6.9377   0.0000   0.0000   0.0000   0.2632
  19.600   1.6364   0.11548   0.11055  -0.0840  0.0256  1.0000  -6.9626   0.0000   0.0000   0.0000   0.2633
  19.700   1.6330   0.11730   0.11240  -0.0844  0.0253  1.0000  -6.9846   0.0000   0.0000   0.0000   0.2634
  19.800   1.6289   0.11926   0.11438  -0.0849  0.0251  1.0000  -7.0012   0.0000   0.0000   0.0000   0.2636
  19.900   1.6243   0.12130   0.11645  -0.0854  0.0248  1.0000  -7.0136   0.0000   0.0000   0.0000   0.2638
  20.000   1.6234   0.12277   0.11796  -0.0858  0.0245  1.0000  -7.0495   0.0000   0.0000   0.0000   0.2638


