xflr5 v6.57

 Calculated polar for: wine

 1 1 Reynolds number fixed          Mach number fixed         

 xtrf =   1.000 (top)        1.000 (bottom)
 Mach =   0.000     Re =     0.880 e 6     Ncrit =   9.000

  alpha     CL        CD       CDp       Cm    Top Xtr Bot Xtr   Cpmin    Chinge    XCp    
 ------- -------- --------- --------- -------- ------- ------- -------- --------- ---------
 -10.000  -0.2143   0.08427   0.08166  -0.0785  0.8045  0.0218  -2.6976   0.0000   0.0000   0.0000  -0.1507
  -9.900  -0.2115   0.08316   0.08054  -0.0792  0.8031  0.0220  -2.6826   0.0000   0.0000   0.0000  -0.1588
  -9.800  -0.2081   0.08217   0.07954  -0.0798  0.8017  0.0221  -2.6589   0.0000   0.0000   0.0000  -0.1679
  -9.700  -0.2041   0.08133   0.07869  -0.0804  0.8005  0.0223  -2.6244   0.0000   0.0000   0.0000  -0.1783
  -9.600  -0.1987   0.08078   0.07814  -0.0808  0.7990  0.0227  -2.5687   0.0000   0.0000   0.0000  -0.1916
  -9.500  -0.4058   0.01755   0.01236  -0.1374  0.7927  0.0211  -6.0919   0.0000   0.0000   0.0000  -0.1099
  -9.400  -0.3969   0.01684   0.01157  -0.1375  0.7916  0.0213  -6.0341   0.0000   0.0000   0.0000  -0.1180
  -9.300  -0.3871   0.01640   0.01109  -0.1377  0.7904  0.0216  -5.9575   0.0000   0.0000   0.0000  -0.1273
  -9.200  -0.3766   0.01610   0.01078  -0.1378  0.7890  0.0217  -5.8710   0.0000   0.0000   0.0000  -0.1378
  -9.100  -0.3659   0.01588   0.01054  -0.1379  0.7876  0.0219  -5.7808   0.0000   0.0000   0.0000  -0.1490
  -9.000  -0.3551   0.01569   0.01034  -0.1380  0.7863  0.0221  -5.6889   0.0000   0.0000   0.0000  -0.1611
  -8.900  -0.3442   0.01553   0.01016  -0.1381  0.7850  0.0223  -5.5966   0.0000   0.0000   0.0000  -0.1740
  -8.800  -0.3332   0.01537   0.00998  -0.1382  0.7838  0.0226  -5.5049   0.0000   0.0000   0.0000  -0.1878
  -8.700  -0.3222   0.01522   0.00980  -0.1382  0.7827  0.0228  -5.4144   0.0000   0.0000   0.0000  -0.2026
  -8.600  -0.3113   0.01507   0.00961  -0.1383  0.7816  0.0230  -5.3254   0.0000   0.0000   0.0000  -0.2184
  -8.500  -0.3003   0.01490   0.00942  -0.1384  0.7804  0.0233  -5.2379   0.0000   0.0000   0.0000  -0.2355
  -8.400  -0.2892   0.01472   0.00921  -0.1385  0.7791  0.0235  -5.1519   0.0000   0.0000   0.0000  -0.2539
  -8.300  -0.2782   0.01454   0.00900  -0.1386  0.7777  0.0238  -5.0670   0.0000   0.0000   0.0000  -0.2737
  -8.200  -0.2671   0.01437   0.00879  -0.1387  0.7764  0.0240  -4.9832   0.0000   0.0000   0.0000  -0.2952
  -8.100  -0.2561   0.01420   0.00858  -0.1387  0.7752  0.0242  -4.8997   0.0000   0.0000   0.0000  -0.3186
  -8.000  -0.2449   0.01405   0.00839  -0.1388  0.7741  0.0244  -4.8160   0.0000   0.0000   0.0000  -0.3443
  -7.900  -0.2337   0.01392   0.00822  -0.1389  0.7730  0.0245  -4.7317   0.0000   0.0000   0.0000  -0.3725
  -7.800  -0.2232   0.01357   0.00782  -0.1390  0.7719  0.0248  -4.6592   0.0000   0.0000   0.0000  -0.4016
  -7.700  -0.2126   0.01325   0.00749  -0.1390  0.7707  0.0251  -4.5830   0.0000   0.0000   0.0000  -0.4341
  -7.600  -0.2016   0.01305   0.00728  -0.1391  0.7694  0.0254  -4.5002   0.0000   0.0000   0.0000  -0.4713
  -7.500  -0.1905   0.01289   0.00712  -0.1392  0.7681  0.0257  -4.4157   0.0000   0.0000   0.0000  -0.5134
  -7.400  -0.1793   0.01275   0.00698  -0.1393  0.7668  0.0259  -4.3314   0.0000   0.0000   0.0000  -0.5609
  -7.300  -0.1681   0.01262   0.00683  -0.1394  0.7656  0.0262  -4.2478   0.0000   0.0000   0.0000  -0.6149
  -7.200  -0.1568   0.01250   0.00668  -0.1395  0.7644  0.0265  -4.1652   0.0000   0.0000   0.0000  -0.6768
  -7.100  -0.1455   0.01238   0.00654  -0.1395  0.7633  0.0269  -4.0834   0.0000   0.0000   0.0000  -0.7483
  -7.000  -0.1342   0.01227   0.00640  -0.1396  0.7623  0.0272  -4.0020   0.0000   0.0000   0.0000  -0.8321
  -6.900  -0.1229   0.01216   0.00626  -0.1397  0.7611  0.0276  -3.9212   0.0000   0.0000   0.0000  -0.9319
  -6.800  -0.1115   0.01206   0.00614  -0.1398  0.7598  0.0279  -3.8407   0.0000   0.0000   0.0000  -1.0525
  -6.700  -0.1000   0.01197   0.00603  -0.1398  0.7585  0.0282  -3.7603   0.0000   0.0000   0.0000  -1.2011
  -6.600  -0.0889   0.01179   0.00583  -0.1399  0.7573  0.0286  -3.6854   0.0000   0.0000   0.0000  -1.3834
  -6.500  -0.0779   0.01154   0.00557  -0.1400  0.7561  0.0291  -3.6184   0.0000   0.0000   0.0000  -1.6122
  -6.400  -0.0667   0.01139   0.00542  -0.1401  0.7549  0.0295  -3.5461   0.0000   0.0000   0.0000  -1.9263
  -6.300  -0.0553   0.01129   0.00530  -0.1402  0.7539  0.0298  -3.4731   0.0000   0.0000   0.0000  -2.3722
  -6.200  -0.0440   0.01119   0.00519  -0.1402  0.7528  0.0303  -3.4007   0.0000   0.0000   0.0000  -3.0511
  -6.100  -0.0325   0.01110   0.00508  -0.1403  0.7517  0.0307  -3.3292   0.0000   0.0000   0.0000  -4.2078
  -6.000  -0.0211   0.01100   0.00497  -0.1404  0.7504  0.0312  -3.2587   0.0000   0.0000   0.0000  -6.6174
  -5.900  -0.0097   0.01090   0.00485  -0.1405  0.7490  0.0316  -3.1889   0.0000   0.0000   0.0000  -14.7351
  -5.800   0.0018   0.01081   0.00475  -0.1406  0.7478  0.0321  -3.1195   0.0000   0.0000   0.0000  80.8348
  -5.700   0.0133   0.01075   0.00466  -0.1406  0.7465  0.0324  -3.0500   0.0000   0.0000   0.0000  11.1326
  -5.600   0.0244   0.01052   0.00443  -0.1407  0.7453  0.0331  -2.9862   0.0000   0.0000   0.0000   6.1861
  -5.500   0.0358   0.01041   0.00431  -0.1408  0.7442  0.0337  -2.9173   0.0000   0.0000   0.0000   4.3004
  -5.400   0.0473   0.01034   0.00422  -0.1409  0.7432  0.0344  -2.8476   0.0000   0.0000   0.0000   3.3174
  -5.300   0.0588   0.01027   0.00414  -0.1410  0.7420  0.0351  -2.7787   0.0000   0.0000   0.0000   2.7169
  -5.200   0.0703   0.01019   0.00406  -0.1410  0.7407  0.0358  -2.7109   0.0000   0.0000   0.0000   2.3128
  -5.100   0.0818   0.01013   0.00399  -0.1411  0.7394  0.0364  -2.6438   0.0000   0.0000   0.0000   2.0215
  -5.000   0.0933   0.01002   0.00386  -0.1412  0.7381  0.0372  -2.5792   0.0000   0.0000   0.0000   1.8043
  -4.900   0.1046   0.00988   0.00374  -0.1413  0.7368  0.0381  -2.5197   0.0000   0.0000   0.0000   1.6354
  -4.800   0.1161   0.00981   0.00365  -0.1414  0.7356  0.0389  -2.4586   0.0000   0.0000   0.0000   1.4982
  -4.700   0.1277   0.00974   0.00358  -0.1415  0.7345  0.0397  -2.3982   0.0000   0.0000   0.0000   1.3854
  -4.600   0.1392   0.00969   0.00350  -0.1415  0.7334  0.0406  -2.3386   0.0000   0.0000   0.0000   1.2911
  -4.500   0.1508   0.00965   0.00343  -0.1416  0.7323  0.0414  -2.2793   0.0000   0.0000   0.0000   1.2109
  -4.400   0.1622   0.00951   0.00331  -0.1417  0.7309  0.0426  -2.2223   0.0000   0.0000   0.0000   1.1436
  -4.300   0.1737   0.00943   0.00324  -0.1418  0.7295  0.0437  -2.1631   0.0000   0.0000   0.0000   1.0844
  -4.200   0.1853   0.00937   0.00318  -0.1419  0.7281  0.0449  -2.1046   0.0000   0.0000   0.0000   1.0323
  -4.100   0.1969   0.00932   0.00312  -0.1419  0.7268  0.0460  -2.0466   0.0000   0.0000   0.0000   0.9862
  -4.000   0.2083   0.00922   0.00302  -0.1420  0.7256  0.0475  -1.9899   0.0000   0.0000   0.0000   0.9457
  -3.900   0.2199   0.00916   0.00296  -0.1421  0.7244  0.0490  -1.9322   0.0000   0.0000   0.0000   0.9091
  -3.800   0.2314   0.00912   0.00290  -0.1422  0.7233  0.0506  -1.8752   0.0000   0.0000   0.0000   0.8761
  -3.700   0.2430   0.00906   0.00283  -0.1423  0.7222  0.0522  -1.8194   0.0000   0.0000   0.0000   0.8463
  -3.600   0.2545   0.00898   0.00277  -0.1424  0.7208  0.0541  -1.7636   0.0000   0.0000   0.0000   0.8194
  -3.500   0.2661   0.00893   0.00272  -0.1425  0.7193  0.0560  -1.7095   0.0000   0.0000   0.0000   0.7946
  -3.400   0.2776   0.00886   0.00266  -0.1425  0.7179  0.0581  -1.6594   0.0000   0.0000   0.0000   0.7720
  -3.300   0.2892   0.00880   0.00260  -0.1426  0.7165  0.0605  -1.6090   0.0000   0.0000   0.0000   0.7511
  -3.200   0.3007   0.00875   0.00255  -0.1427  0.7152  0.0631  -1.5593   0.0000   0.0000   0.0000   0.7318
  -3.100   0.3123   0.00868   0.00249  -0.1428  0.7140  0.0662  -1.5096   0.0000   0.0000   0.0000   0.7140
  -3.000   0.3238   0.00864   0.00244  -0.1429  0.7128  0.0696  -1.4604   0.0000   0.0000   0.0000   0.6974
  -2.900   0.3354   0.00858   0.00240  -0.1430  0.7115  0.0736  -1.4116   0.0000   0.0000   0.0000   0.6820
  -2.800   0.3469   0.00852   0.00236  -0.1431  0.7100  0.0780  -1.3632   0.0000   0.0000   0.0000   0.6677
  -2.700   0.3584   0.00846   0.00232  -0.1432  0.7085  0.0831  -1.3152   0.0000   0.0000   0.0000   0.6542
  -2.600   0.3700   0.00840   0.00228  -0.1432  0.7070  0.0889  -1.2674   0.0000   0.0000   0.0000   0.6416
  -2.400   0.3930   0.00828   0.00220  -0.1434  0.7044  0.1035  -1.1732   0.0000   0.0000   0.0000   0.6187
  -2.300   0.4046   0.00823   0.00217  -0.1435  0.7031  0.1122  -1.1266   0.0000   0.0000   0.0000   0.6082
  -2.200   0.4161   0.00817   0.00214  -0.1436  0.7018  0.1218  -1.0805   0.0000   0.0000   0.0000   0.5983
  -2.100   0.4276   0.00811   0.00212  -0.1437  0.7003  0.1321  -1.0348   0.0000   0.0000   0.0000   0.5889
  -2.000   0.4391   0.00805   0.00210  -0.1438  0.6987  0.1431  -0.9924   0.0000   0.0000   0.0000   0.5800
  -1.900   0.4506   0.00799   0.00207  -0.1439  0.6972  0.1546  -0.9509   0.0000   0.0000   0.0000   0.5716
  -1.800   0.4621   0.00793   0.00205  -0.1440  0.6957  0.1667  -0.9098   0.0000   0.0000   0.0000   0.5636
  -1.700   0.4736   0.00788   0.00203  -0.1441  0.6944  0.1792  -0.8690   0.0000   0.0000   0.0000   0.5560
  -1.600   0.4851   0.00784   0.00201  -0.1442  0.6931  0.1918  -0.8291   0.0000   0.0000   0.0000   0.5487
  -1.500   0.4966   0.00779   0.00199  -0.1443  0.6917  0.2052  -0.8364   0.0000   0.0000   0.0000   0.5418
  -1.400   0.5081   0.00773   0.00198  -0.1444  0.6901  0.2198  -0.8438   0.0000   0.0000   0.0000   0.5352
  -1.300   0.5196   0.00768   0.00197  -0.1445  0.6884  0.2349  -0.8513   0.0000   0.0000   0.0000   0.5289
  -1.200   0.5311   0.00762   0.00196  -0.1446  0.6867  0.2499  -0.8588   0.0000   0.0000   0.0000   0.5228
  -1.100   0.5426   0.00757   0.00195  -0.1447  0.6852  0.2659  -0.8667   0.0000   0.0000   0.0000   0.5170
  -1.000   0.5541   0.00752   0.00194  -0.1448  0.6837  0.2828  -0.8746   0.0000   0.0000   0.0000   0.5115
  -0.900   0.5655   0.00748   0.00193  -0.1449  0.6823  0.3012  -0.8826   0.0000   0.0000   0.0000   0.5062
  -0.800   0.5770   0.00743   0.00193  -0.1450  0.6807  0.3203  -0.8905   0.0000   0.0000   0.0000   0.5011
  -0.700   0.5884   0.00737   0.00193  -0.1451  0.6789  0.3404  -0.8986   0.0000   0.0000   0.0000   0.4961
  -0.600   0.5999   0.00731   0.00194  -0.1452  0.6772  0.3612  -0.9068   0.0000   0.0000   0.0000   0.4914
  -0.500   0.6113   0.00725   0.00194  -0.1453  0.6755  0.3833  -0.9149   0.0000   0.0000   0.0000   0.4869
  -0.400   0.6227   0.00720   0.00194  -0.1454  0.6740  0.4068  -0.9232   0.0000   0.0000   0.0000   0.4825
  -0.300   0.6341   0.00716   0.00194  -0.1455  0.6725  0.4307  -0.9315   0.0000   0.0000   0.0000   0.4783
  -0.200   0.6455   0.00711   0.00195  -0.1456  0.6710  0.4552  -0.9399   0.0000   0.0000   0.0000   0.4742
  -0.100   0.6569   0.00705   0.00196  -0.1457  0.6692  0.4799  -0.9482   0.0000   0.0000   0.0000   0.4703
   0.000   0.6683   0.00700   0.00198  -0.1457  0.6673  0.5044  -0.9566   0.0000   0.0000   0.0000   0.4664
   0.100   0.6797   0.00695   0.00199  -0.1458  0.6655  0.5291  -0.9650   0.0000   0.0000   0.0000   0.4627
   0.200   0.6910   0.00691   0.00200  -0.1459  0.6638  0.5533  -0.9736   0.0000   0.0000   0.0000   0.4592
   0.300   0.7023   0.00687   0.00201  -0.1459  0.6622  0.5779  -0.9823   0.0000   0.0000   0.0000   0.4557
   0.400   0.7135   0.00683   0.00203  -0.1460  0.6605  0.6035  -0.9911   0.0000   0.0000   0.0000   0.4523
   0.500   0.7248   0.00678   0.00206  -0.1460  0.6585  0.6295  -0.9999   0.0000   0.0000   0.0000   0.4490
   0.600   0.7360   0.00674   0.00209  -0.1460  0.6565  0.6547  -1.0089   0.0000   0.0000   0.0000   0.4458
   0.700   0.7472   0.00671   0.00211  -0.1460  0.6545  0.6767  -1.0182   0.0000   0.0000   0.0000   0.4427
   0.800   0.7583   0.00670   0.00212  -0.1460  0.6527  0.6966  -1.0274   0.0000   0.0000   0.0000   0.4397
   0.900   0.7694   0.00669   0.00214  -0.1460  0.6510  0.7150  -1.0366   0.0000   0.0000   0.0000   0.4368
   1.000   0.7806   0.00666   0.00217  -0.1460  0.6490  0.7330  -1.0461   0.0000   0.0000   0.0000   0.4339
   1.100   0.7916   0.00664   0.00219  -0.1459  0.6468  0.7502  -1.0556   0.0000   0.0000   0.0000   0.4311
   1.200   0.8027   0.00662   0.00222  -0.1459  0.6447  0.7675  -1.0650   0.0000   0.0000   0.0000   0.4284
   1.300   0.8135   0.00661   0.00223  -0.1458  0.6428  0.7836  -1.0745   0.0000   0.0000   0.0000   0.4257
   1.400   0.8243   0.00661   0.00225  -0.1457  0.6410  0.7992  -1.0839   0.0000   0.0000   0.0000   0.4231
   1.500   0.8351   0.00659   0.00228  -0.1456  0.6389  0.8147  -1.0936   0.0000   0.0000   0.0000   0.4206
   1.600   0.8459   0.00657   0.00230  -0.1455  0.6366  0.8307  -1.1035   0.0000   0.0000   0.0000   0.4181
   1.700   0.8563   0.00655   0.00232  -0.1453  0.6343  0.8473  -1.1132   0.0000   0.0000   0.0000   0.4156
   1.800   0.8664   0.00653   0.00234  -0.1450  0.6322  0.8657  -1.1228   0.0000   0.0000   0.0000   0.4132
   1.900   0.8759   0.00652   0.00236  -0.1446  0.6302  0.8880  -1.1319   0.0000   0.0000   0.0000   0.4108
   2.000   0.8848   0.00646   0.00237  -0.1440  0.6279  0.9161  -1.1413   0.0000   0.0000   0.0000   0.4083
   2.100   0.8971   0.00639   0.00236  -0.1442  0.6254  0.9630  -1.1528   0.0000   0.0000   0.0000   0.4061
   2.200   0.9113   0.00640   0.00236  -0.1448  0.6229  1.0000  -1.1656   0.0000   0.0000   0.0000   0.4042
   2.300   0.9225   0.00644   0.00238  -0.1449  0.6206  1.0000  -1.1767   0.0000   0.0000   0.0000   0.4022
   2.400   0.9338   0.00648   0.00240  -0.1450  0.6183  1.0000  -1.1879   0.0000   0.0000   0.0000   0.4002
   2.500   0.9453   0.00650   0.00242  -0.1450  0.6156  1.0000  -1.1995   0.0000   0.0000   0.0000   0.3983
   2.600   0.9566   0.00653   0.00244  -0.1451  0.6130  1.0000  -1.2110   0.0000   0.0000   0.0000   0.3964
   2.700   0.9677   0.00658   0.00246  -0.1451  0.6105  1.0000  -1.2228   0.0000   0.0000   0.0000   0.3946
   2.800   0.9789   0.00662   0.00249  -0.1452  0.6081  1.0000  -1.2346   0.0000   0.0000   0.0000   0.3928
   2.900   0.9903   0.00665   0.00251  -0.1452  0.6053  1.0000  -1.2466   0.0000   0.0000   0.0000   0.3910
   3.000   1.0015   0.00668   0.00254  -0.1453  0.6024  1.0000  -1.2585   0.0000   0.0000   0.0000   0.3893
   3.100   1.0125   0.00673   0.00257  -0.1453  0.5998  1.0000  -1.2706   0.0000   0.0000   0.0000   0.3876
   3.200   1.0237   0.00678   0.00260  -0.1453  0.5972  1.0000  -1.2832   0.0000   0.0000   0.0000   0.3859
   3.300   1.0349   0.00681   0.00263  -0.1454  0.5941  1.0000  -1.2958   0.0000   0.0000   0.0000   0.3843
   3.400   1.0460   0.00685   0.00266  -0.1454  0.5910  1.0000  -1.3084   0.0000   0.0000   0.0000   0.3827
   3.500   1.0568   0.00691   0.00269  -0.1454  0.5883  1.0000  -1.3211   0.0000   0.0000   0.0000   0.3811
   3.600   1.0680   0.00695   0.00273  -0.1454  0.5851  1.0000  -1.3342   0.0000   0.0000   0.0000   0.3796
   3.700   1.0791   0.00699   0.00276  -0.1454  0.5818  1.0000  -1.3476   0.0000   0.0000   0.0000   0.3781
   3.800   1.0899   0.00705   0.00280  -0.1454  0.5786  1.0000  -1.3612   0.0000   0.0000   0.0000   0.3766
   3.900   1.1008   0.00710   0.00284  -0.1454  0.5754  1.0000  -1.3753   0.0000   0.0000   0.0000   0.3751
   4.000   1.1118   0.00714   0.00288  -0.1454  0.5717  1.0000  -1.3897   0.0000   0.0000   0.0000   0.3737
   4.100   1.1225   0.00720   0.00292  -0.1454  0.5682  1.0000  -1.4042   0.0000   0.0000   0.0000   0.3723
   4.200   1.1333   0.00726   0.00297  -0.1453  0.5647  1.0000  -1.4190   0.0000   0.0000   0.0000   0.3709
   4.300   1.1441   0.00731   0.00301  -0.1453  0.5608  1.0000  -1.4344   0.0000   0.0000   0.0000   0.3695
   4.400   1.1547   0.00738   0.00306  -0.1452  0.5570  1.0000  -1.4502   0.0000   0.0000   0.0000   0.3681
   4.500   1.1654   0.00744   0.00311  -0.1452  0.5533  1.0000  -1.4666   0.0000   0.0000   0.0000   0.3668
   4.600   1.1761   0.00750   0.00316  -0.1452  0.5491  1.0000  -1.4831   0.0000   0.0000   0.0000   0.3655
   4.800   1.1972   0.00764   0.00327  -0.1450  0.5410  1.0000  -1.5161   0.0000   0.0000   0.0000   0.3630
   4.900   1.2076   0.00771   0.00332  -0.1450  0.5366  1.0000  -1.5330   0.0000   0.0000   0.0000   0.3617
   5.000   1.2180   0.00779   0.00338  -0.1449  0.5325  1.0000  -1.5504   0.0000   0.0000   0.0000   0.3605
   5.100   1.2285   0.00786   0.00344  -0.1448  0.5280  1.0000  -1.5681   0.0000   0.0000   0.0000   0.3593
   5.300   1.2491   0.00801   0.00357  -0.1446  0.5192  1.0000  -1.6068   0.0000   0.0000   0.0000   0.3569
   5.400   1.2591   0.00811   0.00364  -0.1445  0.5145  1.0000  -1.6265   0.0000   0.0000   0.0000   0.3557
   5.500   1.2693   0.00819   0.00371  -0.1443  0.5098  1.0000  -1.6468   0.0000   0.0000   0.0000   0.3545
   5.600   1.2793   0.00828   0.00379  -0.1442  0.5046  1.0000  -1.6673   0.0000   0.0000   0.0000   0.3534
   5.700   1.2893   0.00838   0.00386  -0.1440  0.4995  1.0000  -1.6878   0.0000   0.0000   0.0000   0.3523
   5.800   1.2992   0.00847   0.00394  -0.1439  0.4940  1.0000  -1.7086   0.0000   0.0000   0.0000   0.3511
   5.900   1.3089   0.00858   0.00403  -0.1437  0.4888  1.0000  -1.7297   0.0000   0.0000   0.0000   0.3500
   6.000   1.3187   0.00868   0.00411  -0.1435  0.4833  1.0000  -1.7516   0.0000   0.0000   0.0000   0.3489
   6.100   1.3283   0.00879   0.00420  -0.1433  0.4782  1.0000  -1.7735   0.0000   0.0000   0.0000   0.3478
   6.200   1.3380   0.00890   0.00429  -0.1431  0.4727  1.0000  -1.7955   0.0000   0.0000   0.0000   0.3468
   6.300   1.3475   0.00901   0.00438  -0.1429  0.4675  1.0000  -1.8197   0.0000   0.0000   0.0000   0.3457
   6.400   1.3570   0.00912   0.00448  -0.1426  0.4619  1.0000  -1.8462   0.0000   0.0000   0.0000   0.3446
   6.500   1.3663   0.00924   0.00458  -0.1424  0.4566  1.0000  -1.8729   0.0000   0.0000   0.0000   0.3436
   6.600   1.3756   0.00937   0.00468  -0.1421  0.4508  1.0000  -1.9005   0.0000   0.0000   0.0000   0.3425
   6.700   1.3848   0.00949   0.00478  -0.1419  0.4452  1.0000  -1.9298   0.0000   0.0000   0.0000   0.3415
   6.800   1.3937   0.00963   0.00490  -0.1415  0.4393  1.0000  -1.9595   0.0000   0.0000   0.0000   0.3405
   6.900   1.4027   0.00976   0.00501  -0.1412  0.4332  1.0000  -1.9895   0.0000   0.0000   0.0000   0.3395
   7.000   1.4110   0.00992   0.00514  -0.1408  0.4268  1.0000  -2.0191   0.0000   0.0000   0.0000   0.3384
   7.100   1.4198   0.01006   0.00526  -0.1405  0.4198  1.0000  -2.0504   0.0000   0.0000   0.0000   0.3374
   7.200   1.4281   0.01022   0.00539  -0.1401  0.4131  1.0000  -2.0812   0.0000   0.0000   0.0000   0.3364
   7.300   1.4360   0.01040   0.00553  -0.1396  0.4062  1.0000  -2.1126   0.0000   0.0000   0.0000   0.3354
   7.400   1.4444   0.01055   0.00566  -0.1392  0.3993  1.0000  -2.1450   0.0000   0.0000   0.0000   0.3344
   7.500   1.4522   0.01072   0.00581  -0.1387  0.3929  1.0000  -2.1766   0.0000   0.0000   0.0000   0.3334
   7.600   1.4601   0.01089   0.00595  -0.1382  0.3862  1.0000  -2.2083   0.0000   0.0000   0.0000   0.3324
   7.700   1.4679   0.01106   0.00610  -0.1378  0.3797  1.0000  -2.2413   0.0000   0.0000   0.0000   0.3314
   7.800   1.4747   0.01126   0.00626  -0.1371  0.3732  1.0000  -2.2729   0.0000   0.0000   0.0000   0.3303
   7.900   1.4816   0.01143   0.00641  -0.1364  0.3664  1.0000  -2.3050   0.0000   0.0000   0.0000   0.3293
   8.000   1.4882   0.01162   0.00658  -0.1357  0.3601  1.0000  -2.3366   0.0000   0.0000   0.0000   0.3283
   8.100   1.4944   0.01183   0.00676  -0.1350  0.3536  1.0000  -2.3675   0.0000   0.0000   0.0000   0.3272
   8.200   1.5013   0.01202   0.00693  -0.1344  0.3471  1.0000  -2.4009   0.0000   0.0000   0.0000   0.3262
   8.300   1.5074   0.01224   0.00712  -0.1336  0.3410  1.0000  -2.4334   0.0000   0.0000   0.0000   0.3252
   8.400   1.5137   0.01246   0.00732  -0.1329  0.3345  1.0000  -2.4665   0.0000   0.0000   0.0000   0.3242
   8.500   1.5200   0.01268   0.00752  -0.1322  0.3283  1.0000  -2.4995   0.0000   0.0000   0.0000   0.3232
   8.600   1.5254   0.01295   0.00775  -0.1314  0.3220  1.0000  -2.5311   0.0000   0.0000   0.0000   0.3222
   8.700   1.5316   0.01318   0.00796  -0.1307  0.3153  1.0000  -2.5710   0.0000   0.0000   0.0000   0.3212
   8.800   1.5372   0.01344   0.00820  -0.1300  0.3091  1.0000  -2.6127   0.0000   0.0000   0.0000   0.3203
   8.900   1.5424   0.01373   0.00846  -0.1292  0.3028  1.0000  -2.6536   0.0000   0.0000   0.0000   0.3193
   9.000   1.5482   0.01399   0.00870  -0.1285  0.2964  1.0000  -2.6962   0.0000   0.0000   0.0000   0.3184
   9.100   1.5533   0.01430   0.00898  -0.1277  0.2902  1.0000  -2.7372   0.0000   0.0000   0.0000   0.3174
   9.200   1.5584   0.01461   0.00927  -0.1269  0.2838  1.0000  -2.7785   0.0000   0.0000   0.0000   0.3165
   9.300   1.5638   0.01491   0.00955  -0.1262  0.2776  1.0000  -2.8206   0.0000   0.0000   0.0000   0.3156
   9.400   1.5684   0.01526   0.00987  -0.1254  0.2714  1.0000  -2.8610   0.0000   0.0000   0.0000   0.3147
   9.500   1.5734   0.01559   0.01018  -0.1247  0.2649  1.0000  -2.9025   0.0000   0.0000   0.0000   0.3138
   9.600   1.5783   0.01594   0.01050  -0.1239  0.2587  1.0000  -2.9439   0.0000   0.0000   0.0000   0.3129
   9.700   1.5826   0.01633   0.01086  -0.1231  0.2526  1.0000  -2.9838   0.0000   0.0000   0.0000   0.3120
   9.800   1.5874   0.01669   0.01121  -0.1224  0.2462  1.0000  -3.0253   0.0000   0.0000   0.0000   0.3111
   9.900   1.5919   0.01707   0.01157  -0.1217  0.2401  1.0000  -3.0662   0.0000   0.0000   0.0000   0.3102
  10.000   1.5958   0.01750   0.01197  -0.1209  0.2341  1.0000  -3.1056   0.0000   0.0000   0.0000   0.3094
  10.100   1.6001   0.01791   0.01235  -0.1201  0.2275  1.0000  -3.1463   0.0000   0.0000   0.0000   0.3085
  10.200   1.6040   0.01835   0.01276  -0.1194  0.2210  1.0000  -3.1878   0.0000   0.0000   0.0000   0.3077
  10.300   1.6074   0.01883   0.01320  -0.1185  0.2145  1.0000  -3.2285   0.0000   0.0000   0.0000   0.3068
  10.500   1.6139   0.01981   0.01413  -0.1169  0.2008  1.0000  -3.3099   0.0000   0.0000   0.0000   0.3052
  10.600   1.6172   0.02031   0.01460  -0.1161  0.1942  1.0000  -3.3506   0.0000   0.0000   0.0000   0.3043
  10.700   1.6201   0.02084   0.01510  -0.1153  0.1880  1.0000  -3.3906   0.0000   0.0000   0.0000   0.3035
  10.900   1.6264   0.02188   0.01608  -0.1138  0.1760  1.0000  -3.4723   0.0000   0.0000   0.0000   0.3019
  11.000   1.6295   0.02240   0.01659  -0.1130  0.1708  1.0000  -3.5134   0.0000   0.0000   0.0000   0.3011
  11.100   1.6324   0.02295   0.01711  -0.1122  0.1658  1.0000  -3.5536   0.0000   0.0000   0.0000   0.3003
  11.200   1.6359   0.02346   0.01760  -0.1115  0.1607  1.0000  -3.5963   0.0000   0.0000   0.0000   0.2996
  11.300   1.6388   0.02402   0.01814  -0.1108  0.1560  1.0000  -3.6370   0.0000   0.0000   0.0000   0.2988
  11.400   1.6417   0.02457   0.01868  -0.1101  0.1511  1.0000  -3.6780   0.0000   0.0000   0.0000   0.2980
  11.500   1.6449   0.02512   0.01921  -0.1094  0.1465  1.0000  -3.7197   0.0000   0.0000   0.0000   0.2973
  11.600   1.6471   0.02573   0.01980  -0.1086  0.1421  1.0000  -3.7589   0.0000   0.0000   0.0000   0.2965
  11.700   1.6504   0.02627   0.02033  -0.1079  0.1376  1.0000  -3.8015   0.0000   0.0000   0.0000   0.2958
  11.800   1.6529   0.02687   0.02092  -0.1072  0.1336  1.0000  -3.8417   0.0000   0.0000   0.0000   0.2950
  11.900   1.6558   0.02745   0.02148  -0.1065  0.1294  1.0000  -3.8831   0.0000   0.0000   0.0000   0.2943
  12.000   1.6585   0.02804   0.02207  -0.1058  0.1257  1.0000  -3.9244   0.0000   0.0000   0.0000   0.2936
  12.100   1.6610   0.02866   0.02267  -0.1051  0.1218  1.0000  -3.9672   0.0000   0.0000   0.0000   0.2929
  12.200   1.6637   0.02925   0.02326  -0.1044  0.1182  1.0000  -4.0112   0.0000   0.0000   0.0000   0.2922
  12.300   1.6658   0.02990   0.02390  -0.1037  0.1146  1.0000  -4.0531   0.0000   0.0000   0.0000   0.2915
  12.400   1.6685   0.03050   0.02449  -0.1031  0.1112  1.0000  -4.0974   0.0000   0.0000   0.0000   0.2908
  12.500   1.6704   0.03118   0.02516  -0.1023  0.1078  1.0000  -4.1387   0.0000   0.0000   0.0000   0.2901
  12.600   1.6731   0.03180   0.02577  -0.1017  0.1045  1.0000  -4.1833   0.0000   0.0000   0.0000   0.2894
  12.700   1.6748   0.03251   0.02647  -0.1010  0.1013  1.0000  -4.2255   0.0000   0.0000   0.0000   0.2887
  12.800   1.6774   0.03314   0.02711  -0.1004  0.0982  1.0000  -4.2726   0.0000   0.0000   0.0000   0.2880
  12.900   1.6789   0.03387   0.02783  -0.0997  0.0952  1.0000  -4.3156   0.0000   0.0000   0.0000   0.2874
  13.000   1.6814   0.03453   0.02849  -0.0991  0.0922  1.0000  -4.3625   0.0000   0.0000   0.0000   0.2867
  13.100   1.6829   0.03527   0.02922  -0.0985  0.0893  1.0000  -4.4061   0.0000   0.0000   0.0000   0.2861
  13.200   1.6853   0.03596   0.02991  -0.0979  0.0865  1.0000  -4.4527   0.0000   0.0000   0.0000   0.2854
  13.300   1.6869   0.03671   0.03065  -0.0973  0.0838  1.0000  -4.4985   0.0000   0.0000   0.0000   0.2848
  13.400   1.6891   0.03742   0.03137  -0.0967  0.0813  1.0000  -4.5475   0.0000   0.0000   0.0000   0.2842
  13.500   1.6909   0.03818   0.03212  -0.0961  0.0787  1.0000  -4.5958   0.0000   0.0000   0.0000   0.2835
  13.600   1.6927   0.03894   0.03288  -0.0956  0.0764  1.0000  -4.6466   0.0000   0.0000   0.0000   0.2829
  13.700   1.6947   0.03968   0.03363  -0.0950  0.0741  1.0000  -4.6984   0.0000   0.0000   0.0000   0.2823
  13.900   1.6983   0.04122   0.03518  -0.0939  0.0699  1.0000  -4.8005   0.0000   0.0000   0.0000   0.2811
  14.000   1.6997   0.04204   0.03600  -0.0934  0.0679  1.0000  -4.8505   0.0000   0.0000   0.0000   0.2806
  14.100   1.7013   0.04285   0.03681  -0.0929  0.0661  1.0000  -4.9009   0.0000   0.0000   0.0000   0.2800
  14.200   1.7034   0.04363   0.03760  -0.0924  0.0642  1.0000  -4.9538   0.0000   0.0000   0.0000   0.2794
  14.300   1.7046   0.04449   0.03846  -0.0919  0.0625  1.0000  -5.0032   0.0000   0.0000   0.0000   0.2789
  14.400   1.7062   0.04532   0.03930  -0.0914  0.0609  1.0000  -5.0543   0.0000   0.0000   0.0000   0.2783
  14.500   1.7080   0.04613   0.04013  -0.0910  0.0592  1.0000  -5.1066   0.0000   0.0000   0.0000   0.2778
  14.600   1.7091   0.04702   0.04102  -0.0905  0.0577  1.0000  -5.1557   0.0000   0.0000   0.0000   0.2772
  14.700   1.7102   0.04791   0.04192  -0.0900  0.0563  1.0000  -5.2051   0.0000   0.0000   0.0000   0.2767
  14.800   1.7120   0.04874   0.04276  -0.0896  0.0548  1.0000  -5.2580   0.0000   0.0000   0.0000   0.2762
  14.900   1.7131   0.04964   0.04367  -0.0892  0.0534  1.0000  -5.3078   0.0000   0.0000   0.0000   0.2757
  15.100   1.7154   0.05146   0.04552  -0.0884  0.0509  1.0000  -5.4079   0.0000   0.0000   0.0000   0.2747
  15.200   1.7169   0.05236   0.04643  -0.0880  0.0496  1.0000  -5.4595   0.0000   0.0000   0.0000   0.2742
  15.300   1.7174   0.05336   0.04744  -0.0876  0.0485  1.0000  -5.5069   0.0000   0.0000   0.0000   0.2737
  15.400   1.7179   0.05436   0.04845  -0.0872  0.0474  1.0000  -5.5544   0.0000   0.0000   0.0000   0.2732
  15.500   1.7197   0.05523   0.04935  -0.0869  0.0463  1.0000  -5.6084   0.0000   0.0000   0.0000   0.2727
  15.600   1.7208   0.05619   0.05033  -0.0865  0.0452  1.0000  -5.6586   0.0000   0.0000   0.0000   0.2723
  15.700   1.7212   0.05721   0.05136  -0.0861  0.0442  1.0000  -5.7060   0.0000   0.0000   0.0000   0.2718
  15.800   1.7209   0.05832   0.05248  -0.0858  0.0433  1.0000  -5.7500   0.0000   0.0000   0.0000   0.2714
  15.900   1.7226   0.05922   0.05340  -0.0855  0.0423  1.0000  -5.8039   0.0000   0.0000   0.0000   0.2709
  16.000   1.7236   0.06020   0.05440  -0.0852  0.0413  1.0000  -5.8545   0.0000   0.0000   0.0000   0.2705
  16.100   1.7237   0.06128   0.05550  -0.0849  0.0404  1.0000  -5.9008   0.0000   0.0000   0.0000   0.2700
  16.200   1.7234   0.06243   0.05666  -0.0846  0.0395  1.0000  -5.9450   0.0000   0.0000   0.0000   0.2696
  16.300   1.7240   0.06348   0.05773  -0.0843  0.0387  1.0000  -5.9937   0.0000   0.0000   0.0000   0.2692
  16.400   1.7250   0.06449   0.05877  -0.0840  0.0379  1.0000  -6.0445   0.0000   0.0000   0.0000   0.2688
  16.500   1.7254   0.06556   0.05986  -0.0838  0.0370  1.0000  -6.0926   0.0000   0.0000   0.0000   0.2684
  16.600   1.7249   0.06675   0.06107  -0.0835  0.0362  1.0000  -6.1365   0.0000   0.0000   0.0000   0.2680
  16.700   1.7240   0.06801   0.06233  -0.0833  0.0355  1.0000  -6.1777   0.0000   0.0000   0.0000   0.2677
  16.800   1.7245   0.06909   0.06344  -0.0831  0.0348  1.0000  -6.2264   0.0000   0.0000   0.0000   0.2673
  16.900   1.7250   0.07018   0.06456  -0.0829  0.0340  1.0000  -6.2748   0.0000   0.0000   0.0000   0.2669
  17.000   1.7249   0.07133   0.06573  -0.0827  0.0333  1.0000  -6.3209   0.0000   0.0000   0.0000   0.2666
  17.100   1.7240   0.07259   0.06702  -0.0825  0.0326  1.0000  -6.3626   0.0000   0.0000   0.0000   0.2662
  17.200   1.7227   0.07392   0.06836  -0.0823  0.0320  1.0000  -6.4018   0.0000   0.0000   0.0000   0.2659
  17.300   1.7219   0.07520   0.06966  -0.0822  0.0314  1.0000  -6.4437   0.0000   0.0000   0.0000   0.2656
  17.400   1.7222   0.07633   0.07083  -0.0820  0.0307  1.0000  -6.4917   0.0000   0.0000   0.0000   0.2653
  17.500   1.7221   0.07753   0.07205  -0.0819  0.0301  1.0000  -6.5374   0.0000   0.0000   0.0000   0.2649
  17.600   1.7211   0.07885   0.07339  -0.0818  0.0295  1.0000  -6.5786   0.0000   0.0000   0.0000   0.2646
  17.700   1.7198   0.08020   0.07477  -0.0817  0.0289  1.0000  -6.6181   0.0000   0.0000   0.0000   0.2644
  17.800   1.7177   0.08168   0.07626  -0.0816  0.0284  1.0000  -6.6529   0.0000   0.0000   0.0000   0.2641
  17.900   1.7164   0.08306   0.07767  -0.0815  0.0279  1.0000  -6.6917   0.0000   0.0000   0.0000   0.2639
  18.000   1.7163   0.08428   0.07893  -0.0815  0.0274  1.0000  -6.7376   0.0000   0.0000   0.0000   0.2636
  18.100   1.7155   0.08560   0.08027  -0.0815  0.0269  1.0000  -6.7793   0.0000   0.0000   0.0000   0.2633
  18.200   1.7145   0.08694   0.08165  -0.0814  0.0264  1.0000  -6.8197   0.0000   0.0000   0.0000   0.2631
  18.300   1.7127   0.08840   0.08313  -0.0814  0.0259  1.0000  -6.8561   0.0000   0.0000   0.0000   0.2629
  18.400   1.7106   0.08989   0.08464  -0.0814  0.0255  1.0000  -6.8910   0.0000   0.0000   0.0000   0.2627
  18.500   1.7078   0.09150   0.08627  -0.0815  0.0251  1.0000  -6.9213   0.0000   0.0000   0.0000   0.2625
  18.600   1.7052   0.09309   0.08789  -0.0815  0.0247  1.0000  -6.9521   0.0000   0.0000   0.0000   0.2624
  18.700   1.7047   0.09440   0.08924  -0.0816  0.0243  1.0000  -6.9955   0.0000   0.0000   0.0000   0.2622
  18.800   1.7037   0.09579   0.09067  -0.0817  0.0239  1.0000  -7.0355   0.0000   0.0000   0.0000   0.2620
  18.900   1.7024   0.09722   0.09213  -0.0818  0.0235  1.0000  -7.0738   0.0000   0.0000   0.0000   0.2618
  19.000   1.7005   0.09875   0.09368  -0.0819  0.0232  1.0000  -7.1088   0.0000   0.0000   0.0000   0.2617
  19.100   1.6986   0.10028   0.09524  -0.0820  0.0228  1.0000  -7.1432   0.0000   0.0000   0.0000   0.2616
  19.200   1.6960   0.10192   0.09691  -0.0822  0.0225  1.0000  -7.1736   0.0000   0.0000   0.0000   0.2615
  19.300   1.6931   0.10358   0.09860  -0.0824  0.0222  1.0000  -7.2023   0.0000   0.0000   0.0000   0.2614
  19.400   1.6893   0.10538   0.10043  -0.0827  0.0219  1.0000  -7.2251   0.0000   0.0000   0.0000   0.2614
  19.500   1.6859   0.10714   0.10221  -0.0829  0.0216  1.0000  -7.2496   0.0000   0.0000   0.0000   0.2614
  19.600   1.6848   0.10858   0.10370  -0.0831  0.0214  1.0000  -7.2875   0.0000   0.0000   0.0000   0.2613
  19.700   1.6834   0.11006   0.10521  -0.0834  0.0211  1.0000  -7.3240   0.0000   0.0000   0.0000   0.2612
  19.800   1.6818   0.11158   0.10677  -0.0836  0.0208  1.0000  -7.3588   0.0000   0.0000   0.0000   0.2611
  19.900   1.6798   0.11318   0.10841  -0.0839  0.0206  1.0000  -7.3910   0.0000   0.0000   0.0000   0.2611
  20.000   1.6776   0.11478   0.11004  -0.0842  0.0203  1.0000  -7.4226   0.0000   0.0000   0.0000   0.2611


