xflr5 v6.57

 Calculated polar for: wine

 1 1 Reynolds number fixed          Mach number fixed         

 xtrf =   1.000 (top)        1.000 (bottom)
 Mach =   0.000     Re =     0.200 e 6     Ncrit =   9.000

  alpha     CL        CD       CDp       Cm    Top Xtr Bot Xtr   Cpmin    Chinge    XCp    
 ------- -------- --------- --------- -------- ------- ------- -------- --------- ---------
  -9.900  -0.1150   0.09772   0.09395  -0.0961  0.9211  0.0629  -1.6986   0.0000   0.0000   0.0000  -0.6465
  -9.800  -0.1060   0.09702   0.09325  -0.0947  0.9191  0.0632  -1.6263   0.0000   0.0000   0.0000  -0.7092
  -9.700  -0.0995   0.09628   0.09250  -0.0940  0.9172  0.0637  -1.5784   0.0000   0.0000   0.0000  -0.7644
  -9.600  -0.0947   0.09547   0.09167  -0.0937  0.9153  0.0643  -1.5497   0.0000   0.0000   0.0000  -0.8113
  -9.500  -0.0909   0.09453   0.09073  -0.0940  0.9127  0.0651  -1.5350   0.0000   0.0000   0.0000  -0.8573
  -9.400  -0.0887   0.09346   0.08966  -0.0944  0.9104  0.0661  -1.5339   0.0000   0.0000   0.0000  -0.8890
  -9.300  -0.0889   0.09218   0.08837  -0.0953  0.9084  0.0673  -1.5574   0.0000   0.0000   0.0000  -0.8959
  -9.000  -0.0929   0.08742   0.08362  -0.0993  0.9009  0.0692  -1.6690   0.0000   0.0000   0.0000  -0.8879
  -8.900  -0.0864   0.08666   0.08285  -0.0988  0.8987  0.0696  -1.6275   0.0000   0.0000   0.0000  -0.9664
  -8.800  -0.0814   0.08584   0.08203  -0.0986  0.8967  0.0701  -1.5986   0.0000   0.0000   0.0000  -1.0376
  -8.700  -0.0777   0.08494   0.08112  -0.0986  0.8949  0.0708  -1.5805   0.0000   0.0000   0.0000  -1.0989
  -8.600  -0.0748   0.08393   0.08010  -0.0989  0.8930  0.0716  -1.5727   0.0000   0.0000   0.0000  -1.1551
  -8.500  -0.0729   0.08272   0.07889  -0.0999  0.8904  0.0727  -1.5796   0.0000   0.0000   0.0000  -1.2016
  -8.100  -0.0731   0.07664   0.07283  -0.1050  0.8811  0.0760  -1.6736   0.0000   0.0000   0.0000  -1.2633
  -8.000  -0.0680   0.07590   0.07208  -0.1046  0.8795  0.0765  -1.6412   0.0000   0.0000   0.0000  -1.3712
  -7.900  -0.0640   0.07503   0.07120  -0.1046  0.8780  0.0773  -1.6210   0.0000   0.0000   0.0000  -1.4724
  -7.800  -0.0608   0.07397   0.07015  -0.1054  0.8754  0.0783  -1.6140   0.0000   0.0000   0.0000  -1.5755
  -7.700  -0.0611   0.07243   0.06861  -0.1072  0.8729  0.0799  -1.6408   0.0000   0.0000   0.0000  -1.5926
  -7.200  -0.1102   0.03850   0.03335  -0.1453  0.8565  0.0568  -2.9374   0.0000   0.0000   0.0000  -1.1195
  -7.100  -0.1024   0.03738   0.03218  -0.1455  0.8552  0.0566  -2.9128   0.0000   0.0000   0.0000  -1.2244
  -7.000  -0.0946   0.03619   0.03092  -0.1458  0.8540  0.0563  -2.8927   0.0000   0.0000   0.0000  -1.3480
  -6.900  -0.0880   0.03501   0.02965  -0.1460  0.8519  0.0560  -2.8824   0.0000   0.0000   0.0000  -1.4704
  -6.800  -0.0815   0.03365   0.02815  -0.1463  0.8497  0.0556  -2.8836   0.0000   0.0000   0.0000  -1.6104
  -6.700  -0.0744   0.03213   0.02643  -0.1467  0.8480  0.0552  -2.8917   0.0000   0.0000   0.0000  -1.7928
  -6.600  -0.0665   0.03065   0.02471  -0.1471  0.8467  0.0550  -2.8978   0.0000   0.0000   0.0000  -2.0394
  -6.500  -0.0578   0.02932   0.02314  -0.1473  0.8456  0.0550  -2.8952   0.0000   0.0000   0.0000  -2.3880
  -6.400  -0.0498   0.02834   0.02194  -0.1474  0.8436  0.0554  -2.8847   0.0000   0.0000   0.0000  -2.8136
  -6.300  -0.0415   0.02748   0.02086  -0.1474  0.8413  0.0560  -2.8703   0.0000   0.0000   0.0000  -3.4216
  -6.200  -0.0322   0.02665   0.01973  -0.1474  0.8397  0.0566  -2.8551   0.0000   0.0000   0.0000  -4.4905
  -6.100  -0.0222   0.02591   0.01883  -0.1475  0.8384  0.0572  -2.8192   0.0000   0.0000   0.0000  -6.6041
  -6.000  -0.0116   0.02548   0.01845  -0.1476  0.8374  0.0579  -2.7552   0.0000   0.0000   0.0000  -12.8708
  -5.900  -0.0007   0.02507   0.01803  -0.1476  0.8365  0.0585  -2.6985   0.0000   0.0000   0.0000  -214.1026
  -5.800   0.0078   0.02475   0.01766  -0.1474  0.8340  0.0591  -2.6613   0.0000   0.0000   0.0000  19.6492
  -5.700   0.0176   0.02432   0.01715  -0.1473  0.8321  0.0597  -2.6246   0.0000   0.0000   0.0000   8.8815
  -5.600   0.0281   0.02384   0.01656  -0.1473  0.8307  0.0604  -2.5885   0.0000   0.0000   0.0000   5.6560
  -5.500   0.0390   0.02335   0.01592  -0.1473  0.8295  0.0612  -2.5534   0.0000   0.0000   0.0000   4.1445
  -5.400   0.0502   0.02288   0.01527  -0.1473  0.8284  0.0621  -2.5193   0.0000   0.0000   0.0000   3.2699
  -5.300   0.0615   0.02242   0.01472  -0.1473  0.8276  0.0631  -2.4752   0.0000   0.0000   0.0000   2.7175
  -5.200   0.0699   0.02227   0.01463  -0.1471  0.8249  0.0641  -2.4245   0.0000   0.0000   0.0000   2.4167
  -5.100   0.0800   0.02208   0.01445  -0.1470  0.8231  0.0653  -2.3716   0.0000   0.0000   0.0000   2.1411
  -5.000   0.0908   0.02181   0.01412  -0.1470  0.8217  0.0666  -2.3240   0.0000   0.0000   0.0000   1.9134
  -4.900   0.1022   0.02149   0.01367  -0.1470  0.8205  0.0680  -2.2819   0.0000   0.0000   0.0000   1.7278
  -4.800   0.1135   0.02110   0.01322  -0.1470  0.8195  0.0691  -2.2365   0.0000   0.0000   0.0000   1.5793
  -4.700   0.1249   0.02078   0.01292  -0.1470  0.8186  0.0703  -2.1817   0.0000   0.0000   0.0000   1.4580
  -4.600   0.1335   0.02069   0.01285  -0.1468  0.8159  0.0715  -2.1369   0.0000   0.0000   0.0000   1.3779
  -4.500   0.1437   0.02050   0.01263  -0.1466  0.8141  0.0731  -2.0960   0.0000   0.0000   0.0000   1.2961
  -4.400   0.1549   0.02030   0.01231  -0.1466  0.8127  0.0750  -2.0571   0.0000   0.0000   0.0000   1.2197
  -4.300   0.1658   0.02000   0.01209  -0.1466  0.8115  0.0767  -2.0064   0.0000   0.0000   0.0000   1.1554
  -4.200   0.1773   0.01980   0.01188  -0.1466  0.8105  0.0788  -1.9581   0.0000   0.0000   0.0000   1.0964
  -4.100   0.1892   0.01958   0.01157  -0.1466  0.8096  0.0812  -1.9152   0.0000   0.0000   0.0000   1.0427
  -4.000   0.1977   0.01945   0.01151  -0.1464  0.8070  0.0828  -1.8744   0.0000   0.0000   0.0000   1.0070
  -3.900   0.2077   0.01932   0.01141  -0.1463  0.8051  0.0849  -1.8295   0.0000   0.0000   0.0000   0.9697
  -3.800   0.2188   0.01918   0.01121  -0.1462  0.8036  0.0877  -1.7859   0.0000   0.0000   0.0000   0.9325
  -3.700   0.2299   0.01893   0.01101  -0.1462  0.8025  0.0903  -1.7379   0.0000   0.0000   0.0000   0.8992
  -3.600   0.2416   0.01876   0.01082  -0.1463  0.8014  0.0937  -1.6900   0.0000   0.0000   0.0000   0.8677
  -3.500   0.2533   0.01852   0.01059  -0.1463  0.8005  0.0970  -1.6432   0.0000   0.0000   0.0000   0.8390
  -3.400   0.2623   0.01849   0.01060  -0.1461  0.7981  0.1002  -1.6010   0.0000   0.0000   0.0000   0.8176
  -3.300   0.2722   0.01840   0.01051  -0.1460  0.7960  0.1040  -1.5618   0.0000   0.0000   0.0000   0.7962
  -3.200   0.2831   0.01826   0.01040  -0.1460  0.7945  0.1085  -1.5197   0.0000   0.0000   0.0000   0.7748
  -3.100   0.2945   0.01807   0.01024  -0.1460  0.7933  0.1135  -1.4774   0.0000   0.0000   0.0000   0.7543
  -3.000   0.3063   0.01789   0.01005  -0.1461  0.7922  0.1196  -1.4354   0.0000   0.0000   0.0000   0.7349
  -2.900   0.3182   0.01771   0.00987  -0.1461  0.7913  0.1267  -1.3923   0.0000   0.0000   0.0000   0.7166
  -2.800   0.3278   0.01765   0.00988  -0.1460  0.7892  0.1338  -1.3533   0.0000   0.0000   0.0000   0.7024
  -2.700   0.3373   0.01760   0.00989  -0.1459  0.7868  0.1421  -1.3149   0.0000   0.0000   0.0000   0.6890
  -2.600   0.3483   0.01747   0.00979  -0.1459  0.7852  0.1530  -1.2738   0.0000   0.0000   0.0000   0.6749
  -2.500   0.3598   0.01728   0.00968  -0.1460  0.7840  0.1657  -1.2310   0.0000   0.0000   0.0000   0.6614
  -2.400   0.3716   0.01711   0.00955  -0.1461  0.7829  0.1822  -1.1878   0.0000   0.0000   0.0000   0.6483
  -2.300   0.3836   0.01690   0.00942  -0.1463  0.7820  0.2007  -1.1438   0.0000   0.0000   0.0000   0.6361
  -2.200   0.3940   0.01681   0.00942  -0.1463  0.7802  0.2207  -1.1029   0.0000   0.0000   0.0000   0.6256
  -2.100   0.4030   0.01682   0.00952  -0.1461  0.7775  0.2413  -1.0648   0.0000   0.0000   0.0000   0.6166
  -2.000   0.4139   0.01671   0.00950  -0.1461  0.7759  0.2654  -1.0259   0.0000   0.0000   0.0000   0.6068
  -1.900   0.4254   0.01656   0.00943  -0.1462  0.7745  0.2918  -0.9859   0.0000   0.0000   0.0000   0.5972
  -1.800   0.4371   0.01640   0.00936  -0.1464  0.7734  0.3199  -0.9454   0.0000   0.0000   0.0000   0.5879
  -1.700   0.4491   0.01623   0.00928  -0.1465  0.7725  0.3501  -0.9047   0.0000   0.0000   0.0000   0.5789
  -1.600   0.4600   0.01614   0.00928  -0.1465  0.7710  0.3805  -0.8662   0.0000   0.0000   0.0000   0.5709
  -1.500   0.4683   0.01620   0.00946  -0.1462  0.7680  0.4090  -0.8327   0.0000   0.0000   0.0000   0.5644
  -1.400   0.4790   0.01611   0.00948  -0.1461  0.7663  0.4422  -0.8076   0.0000   0.0000   0.0000   0.5571
  -1.300   0.4901   0.01598   0.00945  -0.1461  0.7649  0.4767  -0.8153   0.0000   0.0000   0.0000   0.5498
  -1.200   0.5015   0.01584   0.00941  -0.1460  0.7638  0.5124  -0.8233   0.0000   0.0000   0.0000   0.5427
  -1.100   0.5130   0.01569   0.00936  -0.1460  0.7628  0.5487  -0.8314   0.0000   0.0000   0.0000   0.5358
  -1.000   0.5235   0.01561   0.00938  -0.1457  0.7615  0.5832  -0.8389   0.0000   0.0000   0.0000   0.5294
  -0.900   0.5309   0.01571   0.00961  -0.1452  0.7583  0.6139  -0.8440   0.0000   0.0000   0.0000   0.5243
  -0.800   0.5408   0.01566   0.00964  -0.1448  0.7565  0.6472  -0.8511   0.0000   0.0000   0.0000   0.5184
  -0.700   0.5510   0.01557   0.00963  -0.1444  0.7552  0.6794  -0.8587   0.0000   0.0000   0.0000   0.5125
  -0.600   0.5615   0.01547   0.00959  -0.1440  0.7540  0.7103  -0.8666   0.0000   0.0000   0.0000   0.5067
  -0.500   0.5719   0.01535   0.00953  -0.1435  0.7530  0.7389  -0.8746   0.0000   0.0000   0.0000   0.5010
  -0.400   0.5804   0.01535   0.00960  -0.1429  0.7512  0.7654  -0.8811   0.0000   0.0000   0.0000   0.4959
  -0.300   0.5870   0.01545   0.00976  -0.1420  0.7483  0.7901  -0.8862   0.0000   0.0000   0.0000   0.4915
  -0.200   0.5952   0.01539   0.00976  -0.1411  0.7465  0.8153  -0.8928   0.0000   0.0000   0.0000   0.4865
  -0.100   0.6037   0.01530   0.00970  -0.1402  0.7451  0.8416  -0.8999   0.0000   0.0000   0.0000   0.4815
   0.000   0.6124   0.01517   0.00960  -0.1393  0.7440  0.8692  -0.9072   0.0000   0.0000   0.0000   0.4766
   0.100   0.6223   0.01501   0.00946  -0.1386  0.7430  0.9014  -0.9154   0.0000   0.0000   0.0000   0.4716
   0.200   0.6349   0.01501   0.00950  -0.1388  0.7407  0.9457  -0.9245   0.0000   0.0000   0.0000   0.4673
   0.300   0.6511   0.01504   0.00951  -0.1400  0.7381  1.0000  -0.9354   0.0000   0.0000   0.0000   0.4635
   0.400   0.6632   0.01505   0.00947  -0.1402  0.7364  1.0000  -0.9445   0.0000   0.0000   0.0000   0.4598
   0.500   0.6759   0.01502   0.00939  -0.1405  0.7350  1.0000  -0.9544   0.0000   0.0000   0.0000   0.4561
   0.600   0.6890   0.01497   0.00928  -0.1408  0.7339  1.0000  -0.9648   0.0000   0.0000   0.0000   0.4524
   0.700   0.7024   0.01491   0.00916  -0.1412  0.7329  1.0000  -0.9754   0.0000   0.0000   0.0000   0.4489
   0.800   0.7109   0.01511   0.00935  -0.1409  0.7297  1.0000  -0.9822   0.0000   0.0000   0.0000   0.4460
   0.900   0.7217   0.01517   0.00939  -0.1409  0.7274  1.0000  -0.9911   0.0000   0.0000   0.0000   0.4429
   1.000   0.7338   0.01516   0.00934  -0.1411  0.7258  1.0000  -1.0011   0.0000   0.0000   0.0000   0.4397
   1.100   0.7466   0.01511   0.00924  -0.1413  0.7245  1.0000  -1.0116   0.0000   0.0000   0.0000   0.4366
   1.200   0.7597   0.01506   0.00914  -0.1416  0.7234  1.0000  -1.0224   0.0000   0.0000   0.0000   0.4335
   1.300   0.7711   0.01509   0.00914  -0.1417  0.7216  1.0000  -1.0321   0.0000   0.0000   0.0000   0.4307
   1.400   0.7796   0.01526   0.00932  -0.1414  0.7183  1.0000  -1.0396   0.0000   0.0000   0.0000   0.4282
   1.500   0.7912   0.01527   0.00930  -0.1415  0.7164  1.0000  -1.0497   0.0000   0.0000   0.0000   0.4255
   1.600   0.8036   0.01524   0.00923  -0.1416  0.7149  1.0000  -1.0606   0.0000   0.0000   0.0000   0.4228
   1.700   0.8166   0.01518   0.00912  -0.1419  0.7137  1.0000  -1.0720   0.0000   0.0000   0.0000   0.4202
   1.800   0.8298   0.01511   0.00901  -0.1422  0.7127  1.0000  -1.0836   0.0000   0.0000   0.0000   0.4176
   1.900   0.8372   0.01533   0.00925  -0.1417  0.7090  1.0000  -1.0909   0.0000   0.0000   0.0000   0.4154
   2.000   0.8482   0.01536   0.00927  -0.1417  0.7068  1.0000  -1.1014   0.0000   0.0000   0.0000   0.4130
   2.100   0.8605   0.01533   0.00920  -0.1418  0.7051  1.0000  -1.1129   0.0000   0.0000   0.0000   0.4107
   2.200   0.8734   0.01526   0.00910  -0.1421  0.7038  1.0000  -1.1250   0.0000   0.0000   0.0000   0.4084
   2.300   0.8866   0.01519   0.00898  -0.1423  0.7026  1.0000  -1.1376   0.0000   0.0000   0.0000   0.4061
   2.400   0.8943   0.01538   0.00920  -0.1419  0.6990  1.0000  -1.1457   0.0000   0.0000   0.0000   0.4041
   2.500   0.9052   0.01541   0.00922  -0.1418  0.6966  1.0000  -1.1567   0.0000   0.0000   0.0000   0.4020
   2.600   0.9174   0.01537   0.00915  -0.1420  0.6949  1.0000  -1.1689   0.0000   0.0000   0.0000   0.3999
   2.700   0.9303   0.01531   0.00905  -0.1422  0.6935  1.0000  -1.1819   0.0000   0.0000   0.0000   0.3979
   2.800   0.9436   0.01523   0.00893  -0.1425  0.6923  1.0000  -1.1954   0.0000   0.0000   0.0000   0.3959
   2.900   0.9508   0.01543   0.00917  -0.1419  0.6884  1.0000  -1.2037   0.0000   0.0000   0.0000   0.3940
   3.000   0.9619   0.01544   0.00917  -0.1419  0.6860  1.0000  -1.2154   0.0000   0.0000   0.0000   0.3921
   3.100   0.9742   0.01540   0.00910  -0.1421  0.6843  1.0000  -1.2285   0.0000   0.0000   0.0000   0.3903
   3.200   0.9872   0.01533   0.00899  -0.1423  0.6828  1.0000  -1.2424   0.0000   0.0000   0.0000   0.3884
   3.300   0.9978   0.01537   0.00904  -0.1422  0.6804  1.0000  -1.2544   0.0000   0.0000   0.0000   0.3867
   3.400   1.0068   0.01548   0.00917  -0.1419  0.6771  1.0000  -1.2651   0.0000   0.0000   0.0000   0.3850
   3.500   1.0184   0.01546   0.00913  -0.1419  0.6749  1.0000  -1.2784   0.0000   0.0000   0.0000   0.3833
   3.600   1.0311   0.01539   0.00903  -0.1421  0.6732  1.0000  -1.2926   0.0000   0.0000   0.0000   0.3816
   3.700   1.0445   0.01531   0.00891  -0.1424  0.6718  1.0000  -1.3078   0.0000   0.0000   0.0000   0.3800
   3.800   1.0518   0.01548   0.00913  -0.1419  0.6678  1.0000  -1.3181   0.0000   0.0000   0.0000   0.3784
   3.900   1.0627   0.01549   0.00913  -0.1418  0.6652  1.0000  -1.3318   0.0000   0.0000   0.0000   0.3768
   4.000   1.0752   0.01543   0.00905  -0.1419  0.6632  1.0000  -1.3473   0.0000   0.0000   0.0000   0.3752
   4.100   1.0884   0.01535   0.00894  -0.1422  0.6616  1.0000  -1.3637   0.0000   0.0000   0.0000   0.3737
   4.200   1.0963   0.01549   0.00911  -0.1417  0.6579  1.0000  -1.3755   0.0000   0.0000   0.0000   0.3722
   4.300   1.1069   0.01551   0.00913  -0.1416  0.6550  1.0000  -1.3902   0.0000   0.0000   0.0000   0.3707
   4.400   1.1192   0.01546   0.00906  -0.1418  0.6529  1.0000  -1.4069   0.0000   0.0000   0.0000   0.3693
   4.500   1.1324   0.01538   0.00894  -0.1420  0.6511  1.0000  -1.4250   0.0000   0.0000   0.0000   0.3679
   4.600   1.1399   0.01553   0.00913  -0.1415  0.6471  1.0000  -1.4379   0.0000   0.0000   0.0000   0.3665
   4.700   1.1507   0.01554   0.00914  -0.1414  0.6442  1.0000  -1.4544   0.0000   0.0000   0.0000   0.3651
   4.800   1.1631   0.01548   0.00907  -0.1415  0.6420  1.0000  -1.4725   0.0000   0.0000   0.0000   0.3638
   4.900   1.1748   0.01547   0.00904  -0.1416  0.6396  1.0000  -1.4902   0.0000   0.0000   0.0000   0.3624
   5.000   1.1829   0.01558   0.00918  -0.1411  0.6356  1.0000  -1.5048   0.0000   0.0000   0.0000   0.3611
   5.100   1.1943   0.01556   0.00916  -0.1411  0.6328  1.0000  -1.5231   0.0000   0.0000   0.0000   0.3598
   5.200   1.2070   0.01550   0.00906  -0.1413  0.6306  1.0000  -1.5430   0.0000   0.0000   0.0000   0.3586
   5.300   1.2154   0.01560   0.00920  -0.1408  0.6266  1.0000  -1.5595   0.0000   0.0000   0.0000   0.3573
   5.400   1.2256   0.01562   0.00922  -0.1407  0.6232  1.0000  -1.5787   0.0000   0.0000   0.0000   0.3560
   5.500   1.2378   0.01558   0.00915  -0.1408  0.6207  1.0000  -1.6003   0.0000   0.0000   0.0000   0.3548
   5.600   1.2474   0.01563   0.00923  -0.1405  0.6171  1.0000  -1.6196   0.0000   0.0000   0.0000   0.3536
   5.700   1.2567   0.01569   0.00930  -0.1402  0.6132  1.0000  -1.6389   0.0000   0.0000   0.0000   0.3523
   5.800   1.2685   0.01565   0.00924  -0.1402  0.6103  1.0000  -1.6615   0.0000   0.0000   0.0000   0.3512
   5.900   1.2783   0.01570   0.00930  -0.1400  0.6066  1.0000  -1.6818   0.0000   0.0000   0.0000   0.3500
   6.000   1.2873   0.01576   0.00937  -0.1396  0.6025  1.0000  -1.7020   0.0000   0.0000   0.0000   0.3488
   6.100   1.2991   0.01573   0.00932  -0.1397  0.5995  1.0000  -1.7258   0.0000   0.0000   0.0000   0.3477
   6.200   1.3079   0.01581   0.00942  -0.1393  0.5953  1.0000  -1.7466   0.0000   0.0000   0.0000   0.3465
   6.300   1.3174   0.01586   0.00948  -0.1390  0.5912  1.0000  -1.7684   0.0000   0.0000   0.0000   0.3454
   6.400   1.3294   0.01583   0.00942  -0.1391  0.5881  1.0000  -1.7952   0.0000   0.0000   0.0000   0.3443
   6.500   1.3368   0.01596   0.00959  -0.1385  0.5832  1.0000  -1.8179   0.0000   0.0000   0.0000   0.3432
   6.600   1.3470   0.01598   0.00960  -0.1383  0.5793  1.0000  -1.8456   0.0000   0.0000   0.0000   0.3421
   6.700   1.3570   0.01603   0.00964  -0.1381  0.5754  1.0000  -1.8737   0.0000   0.0000   0.0000   0.3410
   6.800   1.3653   0.01612   0.00976  -0.1376  0.5706  1.0000  -1.8998   0.0000   0.0000   0.0000   0.3399
   6.900   1.3764   0.01613   0.00973  -0.1375  0.5670  1.0000  -1.9322   0.0000   0.0000   0.0000   0.3389
   7.000   1.3838   0.01625   0.00989  -0.1369  0.5619  1.0000  -1.9594   0.0000   0.0000   0.0000   0.3378
   7.100   1.3936   0.01630   0.00994  -0.1367  0.5576  1.0000  -1.9906   0.0000   0.0000   0.0000   0.3367
   7.200   1.4023   0.01639   0.01003  -0.1363  0.5529  1.0000  -2.0207   0.0000   0.0000   0.0000   0.3357
   7.300   1.4107   0.01648   0.01013  -0.1358  0.5480  1.0000  -2.0514   0.0000   0.0000   0.0000   0.3346
   7.400   1.4203   0.01655   0.01018  -0.1355  0.5435  1.0000  -2.0841   0.0000   0.0000   0.0000   0.3336
   7.500   1.4276   0.01668   0.01033  -0.1349  0.5381  1.0000  -2.1140   0.0000   0.0000   0.0000   0.3325
   7.600   1.4375   0.01674   0.01036  -0.1347  0.5337  1.0000  -2.1491   0.0000   0.0000   0.0000   0.3315
   7.700   1.4441   0.01689   0.01054  -0.1340  0.5279  1.0000  -2.1783   0.0000   0.0000   0.0000   0.3305
   7.800   1.4539   0.01697   0.01058  -0.1337  0.5234  1.0000  -2.2137   0.0000   0.0000   0.0000   0.3295
   7.900   1.4599   0.01713   0.01079  -0.1329  0.5175  1.0000  -2.2428   0.0000   0.0000   0.0000   0.3284
   8.000   1.4693   0.01722   0.01084  -0.1326  0.5129  1.0000  -2.2793   0.0000   0.0000   0.0000   0.3274
   8.100   1.4751   0.01740   0.01106  -0.1318  0.5068  1.0000  -2.3090   0.0000   0.0000   0.0000   0.3264
   8.200   1.4839   0.01751   0.01112  -0.1314  0.5020  1.0000  -2.3449   0.0000   0.0000   0.0000   0.3254
   8.300   1.4894   0.01770   0.01135  -0.1305  0.4958  1.0000  -2.3742   0.0000   0.0000   0.0000   0.3243
   8.400   1.4974   0.01784   0.01145  -0.1300  0.4908  1.0000  -2.4104   0.0000   0.0000   0.0000   0.3233
   8.500   1.5027   0.01803   0.01167  -0.1291  0.4845  1.0000  -2.4413   0.0000   0.0000   0.0000   0.3223
   8.600   1.5096   0.01820   0.01181  -0.1284  0.4791  1.0000  -2.4757   0.0000   0.0000   0.0000   0.3213
   8.700   1.5149   0.01840   0.01203  -0.1275  0.4728  1.0000  -2.5068   0.0000   0.0000   0.0000   0.3202
   8.800   1.5203   0.01859   0.01221  -0.1266  0.4670  1.0000  -2.5416   0.0000   0.0000   0.0000   0.3191
   8.900   1.5248   0.01879   0.01240  -0.1256  0.4610  1.0000  -2.5786   0.0000   0.0000   0.0000   0.3180
   9.000   1.5290   0.01902   0.01263  -0.1245  0.4548  1.0000  -2.6146   0.0000   0.0000   0.0000   0.3169
   9.100   1.5339   0.01925   0.01283  -0.1235  0.4490  1.0000  -2.6533   0.0000   0.0000   0.0000   0.3159
   9.200   1.5373   0.01951   0.01311  -0.1224  0.4426  1.0000  -2.6897   0.0000   0.0000   0.0000   0.3148
   9.300   1.5418   0.01977   0.01333  -0.1214  0.4368  1.0000  -2.7293   0.0000   0.0000   0.0000   0.3137
   9.400   1.5450   0.02007   0.01364  -0.1203  0.4303  1.0000  -2.7653   0.0000   0.0000   0.0000   0.3127
   9.500   1.5487   0.02037   0.01393  -0.1192  0.4244  1.0000  -2.8031   0.0000   0.0000   0.0000   0.3116
   9.600   1.5521   0.02068   0.01424  -0.1182  0.4182  1.0000  -2.8400   0.0000   0.0000   0.0000   0.3106
   9.700   1.5552   0.02102   0.01458  -0.1171  0.4120  1.0000  -2.8763   0.0000   0.0000   0.0000   0.3096
   9.800   1.5586   0.02137   0.01490  -0.1161  0.4060  1.0000  -2.9138   0.0000   0.0000   0.0000   0.3086
   9.900   1.5611   0.02174   0.01529  -0.1150  0.3996  1.0000  -2.9487   0.0000   0.0000   0.0000   0.3076
  10.000   1.5641   0.02213   0.01565  -0.1140  0.3936  1.0000  -2.9852   0.0000   0.0000   0.0000   0.3066
  10.100   1.5665   0.02254   0.01606  -0.1129  0.3872  1.0000  -3.0201   0.0000   0.0000   0.0000   0.3056
  10.200   1.5691   0.02296   0.01648  -0.1119  0.3810  1.0000  -3.0555   0.0000   0.0000   0.0000   0.3047
  10.300   1.5715   0.02340   0.01690  -0.1109  0.3749  1.0000  -3.0907   0.0000   0.0000   0.0000   0.3037
  10.400   1.5736   0.02386   0.01737  -0.1099  0.3684  1.0000  -3.1251   0.0000   0.0000   0.0000   0.3028
  10.500   1.5758   0.02434   0.01782  -0.1089  0.3624  1.0000  -3.1599   0.0000   0.0000   0.0000   0.3019
  10.600   1.5777   0.02484   0.01833  -0.1079  0.3559  1.0000  -3.1938   0.0000   0.0000   0.0000   0.3010
  10.700   1.5796   0.02535   0.01883  -0.1069  0.3497  1.0000  -3.2294   0.0000   0.0000   0.0000   0.3001
  10.800   1.5812   0.02589   0.01936  -0.1059  0.3436  1.0000  -3.2649   0.0000   0.0000   0.0000   0.2992
  10.900   1.5829   0.02644   0.01991  -0.1050  0.3371  1.0000  -3.3004   0.0000   0.0000   0.0000   0.2984
  11.000   1.5843   0.02701   0.02047  -0.1040  0.3311  1.0000  -3.3354   0.0000   0.0000   0.0000   0.2975
  11.100   1.5857   0.02760   0.02106  -0.1030  0.3246  1.0000  -3.3700   0.0000   0.0000   0.0000   0.2967
  11.200   1.5870   0.02820   0.02166  -0.1021  0.3184  1.0000  -3.4048   0.0000   0.0000   0.0000   0.2958
  11.300   1.5878   0.02885   0.02227  -0.1012  0.3125  1.0000  -3.4382   0.0000   0.0000   0.0000   0.2950
  11.400   1.5891   0.02948   0.02292  -0.1003  0.3059  1.0000  -3.4727   0.0000   0.0000   0.0000   0.2942
  11.500   1.5898   0.03015   0.02357  -0.0994  0.2998  1.0000  -3.5060   0.0000   0.0000   0.0000   0.2934
  11.600   1.5904   0.03084   0.02425  -0.0984  0.2936  1.0000  -3.5386   0.0000   0.0000   0.0000   0.2926
  11.700   1.5912   0.03154   0.02495  -0.0976  0.2873  1.0000  -3.5721   0.0000   0.0000   0.0000   0.2918
  11.800   1.5914   0.03228   0.02566  -0.0967  0.2815  1.0000  -3.6037   0.0000   0.0000   0.0000   0.2910
  11.900   1.5919   0.03301   0.02640  -0.0958  0.2751  1.0000  -3.6364   0.0000   0.0000   0.0000   0.2903
  12.000   1.5923   0.03376   0.02714  -0.0950  0.2691  1.0000  -3.6685   0.0000   0.0000   0.0000   0.2895
  12.100   1.5919   0.03457   0.02793  -0.0941  0.2634  1.0000  -3.6986   0.0000   0.0000   0.0000   0.2888
  12.200   1.5924   0.03534   0.02871  -0.0933  0.2570  1.0000  -3.7309   0.0000   0.0000   0.0000   0.2880
  12.300   1.5921   0.03616   0.02952  -0.0925  0.2513  1.0000  -3.7613   0.0000   0.0000   0.0000   0.2873
  12.400   1.5918   0.03701   0.03035  -0.0917  0.2455  1.0000  -3.7914   0.0000   0.0000   0.0000   0.2866
  12.500   1.5918   0.03784   0.03119  -0.0909  0.2395  1.0000  -3.8244   0.0000   0.0000   0.0000   0.2859
  12.600   1.5909   0.03875   0.03207  -0.0901  0.2342  1.0000  -3.8544   0.0000   0.0000   0.0000   0.2852
  12.700   1.5908   0.03961   0.03294  -0.0893  0.2281  1.0000  -3.8873   0.0000   0.0000   0.0000   0.2846
  12.800   1.5904   0.04052   0.03384  -0.0886  0.2226  1.0000  -3.9188   0.0000   0.0000   0.0000   0.2839
  12.900   1.5894   0.04148   0.03478  -0.0878  0.2172  1.0000  -3.9486   0.0000   0.0000   0.0000   0.2832
  13.000   1.5893   0.04240   0.03570  -0.0872  0.2114  1.0000  -3.9813   0.0000   0.0000   0.0000   0.2826
  13.100   1.5882   0.04340   0.03669  -0.0865  0.2064  1.0000  -4.0107   0.0000   0.0000   0.0000   0.2820
  13.200   1.5877   0.04438   0.03766  -0.0858  0.2008  1.0000  -4.0419   0.0000   0.0000   0.0000   0.2814
  13.300   1.5870   0.04538   0.03866  -0.0852  0.1956  1.0000  -4.0727   0.0000   0.0000   0.0000   0.2808
  13.400   1.5856   0.04645   0.03971  -0.0846  0.1908  1.0000  -4.1027   0.0000   0.0000   0.0000   0.2802
  13.500   1.5853   0.04745   0.04072  -0.0840  0.1853  1.0000  -4.1365   0.0000   0.0000   0.0000   0.2797
  13.600   1.5839   0.04856   0.04181  -0.0834  0.1808  1.0000  -4.1665   0.0000   0.0000   0.0000   0.2791
  13.700   1.5832   0.04962   0.04287  -0.0829  0.1757  1.0000  -4.1990   0.0000   0.0000   0.0000   0.2786
  13.800   1.5822   0.05071   0.04396  -0.0823  0.1710  1.0000  -4.2303   0.0000   0.0000   0.0000   0.2781
  13.900   1.5808   0.05186   0.04510  -0.0818  0.1665  1.0000  -4.2602   0.0000   0.0000   0.0000   0.2776
  14.000   1.5802   0.05296   0.04620  -0.0813  0.1618  1.0000  -4.2925   0.0000   0.0000   0.0000   0.2770
  14.100   1.5782   0.05417   0.04739  -0.0808  0.1579  1.0000  -4.3203   0.0000   0.0000   0.0000   0.2766
  14.200   1.5778   0.05527   0.04851  -0.0804  0.1532  1.0000  -4.3534   0.0000   0.0000   0.0000   0.2761
  14.300   1.5757   0.05653   0.04974  -0.0799  0.1497  1.0000  -4.3804   0.0000   0.0000   0.0000   0.2756
  14.400   1.5754   0.05764   0.05087  -0.0795  0.1451  1.0000  -4.4160   0.0000   0.0000   0.0000   0.2752
  14.500   1.5734   0.05892   0.05213  -0.0791  0.1417  1.0000  -4.4452   0.0000   0.0000   0.0000   0.2747
  14.600   1.5729   0.06007   0.05330  -0.0787  0.1375  1.0000  -4.4799   0.0000   0.0000   0.0000   0.2743
  14.700   1.5709   0.06137   0.05458  -0.0783  0.1344  1.0000  -4.5088   0.0000   0.0000   0.0000   0.2739
  14.800   1.5704   0.06254   0.05578  -0.0780  0.1304  1.0000  -4.5434   0.0000   0.0000   0.0000   0.2735
  14.900   1.5680   0.06389   0.05710  -0.0776  0.1277  1.0000  -4.5709   0.0000   0.0000   0.0000   0.2731
  15.000   1.5679   0.06504   0.05829  -0.0773  0.1239  1.0000  -4.6064   0.0000   0.0000   0.0000   0.2727
  15.100   1.5657   0.06640   0.05963  -0.0770  0.1212  1.0000  -4.6346   0.0000   0.0000   0.0000   0.2723
  15.200   1.5652   0.06759   0.06086  -0.0767  0.1178  1.0000  -4.6685   0.0000   0.0000   0.0000   0.2719
  15.300   1.5636   0.06893   0.06218  -0.0765  0.1151  1.0000  -4.6984   0.0000   0.0000   0.0000   0.2716
  15.400   1.5624   0.07021   0.06347  -0.0762  0.1123  1.0000  -4.7296   0.0000   0.0000   0.0000   0.2712
  15.500   1.5614   0.07149   0.06477  -0.0760  0.1095  1.0000  -4.7617   0.0000   0.0000   0.0000   0.2709
  15.600   1.5591   0.07289   0.06614  -0.0757  0.1074  1.0000  -4.7892   0.0000   0.0000   0.0000   0.2706
  15.700   1.5590   0.07411   0.06741  -0.0755  0.1044  1.0000  -4.8255   0.0000   0.0000   0.0000   0.2702
  15.800   1.5574   0.07546   0.06876  -0.0754  0.1022  1.0000  -4.8578   0.0000   0.0000   0.0000   0.2699
  15.900   1.5561   0.07679   0.07009  -0.0752  0.1000  1.0000  -4.8904   0.0000   0.0000   0.0000   0.2696
  16.000   1.5554   0.07808   0.07141  -0.0750  0.0975  1.0000  -4.9253   0.0000   0.0000   0.0000   0.2693
  16.100   1.5538   0.07944   0.07276  -0.0749  0.0956  1.0000  -4.9573   0.0000   0.0000   0.0000   0.2690
  16.200   1.5528   0.08074   0.07408  -0.0747  0.0935  1.0000  -4.9907   0.0000   0.0000   0.0000   0.2687
  16.300   1.5521   0.08206   0.07543  -0.0746  0.0913  1.0000  -5.0251   0.0000   0.0000   0.0000   0.2685
  16.400   1.5507   0.08341   0.07677  -0.0745  0.0896  1.0000  -5.0580   0.0000   0.0000   0.0000   0.2682
  16.500   1.5497   0.08473   0.07810  -0.0744  0.0877  1.0000  -5.0913   0.0000   0.0000   0.0000   0.2679
  16.600   1.5490   0.08606   0.07947  -0.0744  0.0857  1.0000  -5.1257   0.0000   0.0000   0.0000   0.2677
  16.700   1.5480   0.08740   0.08082  -0.0743  0.0841  1.0000  -5.1595   0.0000   0.0000   0.0000   0.2674
  16.800   1.5470   0.08870   0.08211  -0.0742  0.0826  1.0000  -5.1934   0.0000   0.0000   0.0000   0.2672
  16.900   1.5464   0.09005   0.08352  -0.0742  0.0806  1.0000  -5.2272   0.0000   0.0000   0.0000   0.2670
  17.000   1.5456   0.09139   0.08487  -0.0742  0.0790  1.0000  -5.2615   0.0000   0.0000   0.0000   0.2667
  17.100   1.5448   0.09267   0.08612  -0.0742  0.0777  1.0000  -5.2969   0.0000   0.0000   0.0000   0.2665
  17.200   1.5441   0.09399   0.08750  -0.0741  0.0761  1.0000  -5.3302   0.0000   0.0000   0.0000   0.2663
  17.300   1.5435   0.09535   0.08889  -0.0742  0.0745  1.0000  -5.3638   0.0000   0.0000   0.0000   0.2661
  17.400   1.5428   0.09665   0.09020  -0.0742  0.0731  1.0000  -5.3989   0.0000   0.0000   0.0000   0.2659
  17.500   1.5428   0.09777   0.09126  -0.0741  0.0719  1.0000  -5.4385   0.0000   0.0000   0.0000   0.2656
  17.600   1.5418   0.09923   0.09281  -0.0743  0.0704  1.0000  -5.4679   0.0000   0.0000   0.0000   0.2655
  17.700   1.5411   0.10060   0.09422  -0.0744  0.0690  1.0000  -5.5014   0.0000   0.0000   0.0000   0.2653
  17.800   1.5408   0.10186   0.09547  -0.0744  0.0678  1.0000  -5.5382   0.0000   0.0000   0.0000   0.2651
  17.900   1.5415   0.10288   0.09644  -0.0743  0.0667  1.0000  -5.5813   0.0000   0.0000   0.0000   0.2648
  18.000   1.5401   0.10443   0.09809  -0.0746  0.0653  1.0000  -5.6079   0.0000   0.0000   0.0000   0.2647
  18.100   1.5396   0.10580   0.09950  -0.0747  0.0640  1.0000  -5.6408   0.0000   0.0000   0.0000   0.2646
  18.200   1.5395   0.10704   0.10075  -0.0749  0.0629  1.0000  -5.6784   0.0000   0.0000   0.0000   0.2644
  18.300   1.5405   0.10801   0.10167  -0.0748  0.0619  1.0000  -5.7235   0.0000   0.0000   0.0000   0.2641
  18.400   1.5397   0.10943   0.10316  -0.0750  0.0607  1.0000  -5.7529   0.0000   0.0000   0.0000   0.2641
  18.500   1.5390   0.11087   0.10465  -0.0753  0.0596  1.0000  -5.7834   0.0000   0.0000   0.0000   0.2640
  18.600   1.5390   0.11213   0.10594  -0.0754  0.0585  1.0000  -5.8198   0.0000   0.0000   0.0000   0.2638
  18.700   1.5399   0.11318   0.10696  -0.0755  0.0575  1.0000  -5.8629   0.0000   0.0000   0.0000   0.2636
  18.800   1.5420   0.11395   0.10769  -0.0754  0.0566  1.0000  -5.9129   0.0000   0.0000   0.0000   0.2632
  18.900   1.5403   0.11559   0.10943  -0.0758  0.0556  1.0000  -5.9346   0.0000   0.0000   0.0000   0.2633
  19.000   1.5397   0.11699   0.11089  -0.0761  0.0546  1.0000  -5.9652   0.0000   0.0000   0.0000   0.2632
  19.100   1.5401   0.11819   0.11211  -0.0763  0.0537  1.0000  -6.0029   0.0000   0.0000   0.0000   0.2631
  19.200   1.5417   0.11911   0.11300  -0.0764  0.0528  1.0000  -6.0501   0.0000   0.0000   0.0000   0.2629
  19.300   1.5451   0.11964   0.11346  -0.0762  0.0519  1.0000  -6.1083   0.0000   0.0000   0.0000   0.2624
  19.400   1.5428   0.12141   0.11535  -0.0768  0.0511  1.0000  -6.1249   0.0000   0.0000   0.0000   0.2625
  19.500   1.5417   0.12294   0.11695  -0.0772  0.0503  1.0000  -6.1507   0.0000   0.0000   0.0000   0.2626
  19.600   1.5418   0.12422   0.11827  -0.0775  0.0495  1.0000  -6.1856   0.0000   0.0000   0.0000   0.2625
  19.700   1.5433   0.12522   0.11927  -0.0777  0.0487  1.0000  -6.2303   0.0000   0.0000   0.0000   0.2624
  19.800   1.5473   0.12565   0.11963  -0.0776  0.0479  1.0000  -6.2940   0.0000   0.0000   0.0000   0.2619
  19.900   1.5484   0.12670   0.12070  -0.0778  0.0472  1.0000  -6.3331   0.0000   0.0000   0.0000   0.2617
  20.000   1.5461   0.12848   0.12259  -0.0784  0.0466  1.0000  -6.3485   0.0000   0.0000   0.0000   0.2619


