xflr5 v6.57

 Calculated polar for: wine

 1 1 Reynolds number fixed          Mach number fixed         

 xtrf =   1.000 (top)        1.000 (bottom)
 Mach =   0.000     Re =     0.240 e 6     Ncrit =   9.000

  alpha     CL        CD       CDp       Cm    Top Xtr Bot Xtr   Cpmin    Chinge    XCp    
 ------- -------- --------- --------- -------- ------- ------- -------- --------- ---------
  -9.600  -0.1346   0.09228   0.08871  -0.0943  0.8924  0.0570  -1.8846   0.0000   0.0000   0.0000  -0.5014
  -9.500  -0.1261   0.09167   0.08809  -0.0930  0.8906  0.0571  -1.8087   0.0000   0.0000   0.0000  -0.5403
  -9.400  -0.1184   0.09114   0.08755  -0.0919  0.8890  0.0574  -1.7412   0.0000   0.0000   0.0000  -0.5816
  -9.300  -0.1119   0.09055   0.08695  -0.0911  0.8874  0.0578  -1.6882   0.0000   0.0000   0.0000  -0.6224
  -9.200  -0.1067   0.08985   0.08623  -0.0908  0.8858  0.0583  -1.6513   0.0000   0.0000   0.0000  -0.6611
  -9.100  -0.1021   0.08897   0.08535  -0.0910  0.8836  0.0590  -1.6284   0.0000   0.0000   0.0000  -0.7035
  -9.000  -0.0991   0.08793   0.08431  -0.0915  0.8815  0.0598  -1.6204   0.0000   0.0000   0.0000  -0.7369
  -8.900  -0.0978   0.08666   0.08303  -0.0922  0.8797  0.0608  -1.6312   0.0000   0.0000   0.0000  -0.7572
  -8.400  -0.0936   0.07935   0.07571  -0.0972  0.8700  0.0639  -1.7181   0.0000   0.0000   0.0000  -0.8509
  -8.300  -0.0888   0.07849   0.07485  -0.0975  0.8678  0.0644  -1.6935   0.0000   0.0000   0.0000  -0.9128
  -8.200  -0.0852   0.07748   0.07385  -0.0979  0.8658  0.0650  -1.6801   0.0000   0.0000   0.0000  -0.9670
  -8.100  -0.0827   0.07630   0.07265  -0.0987  0.8640  0.0659  -1.6792   0.0000   0.0000   0.0000  -1.0106
  -8.000  -0.0828   0.07465   0.07100  -0.1002  0.8623  0.0671  -1.7081   0.0000   0.0000   0.0000  -1.0274
  -7.800  -0.0955   0.06872   0.06512  -0.1086  0.8564  0.0691  -1.9111   0.0000   0.0000   0.0000  -0.9440
  -7.700  -0.0893   0.06832   0.06470  -0.1076  0.8551  0.0694  -1.8584   0.0000   0.0000   0.0000  -1.0154
  -7.600  -0.0836   0.06775   0.06411  -0.1071  0.8539  0.0698  -1.8167   0.0000   0.0000   0.0000  -1.0944
  -7.500  -0.0782   0.06698   0.06335  -0.1074  0.8519  0.0703  -1.7863   0.0000   0.0000   0.0000  -1.1901
  -7.400  -0.0735   0.06594   0.06231  -0.1083  0.8499  0.0710  -1.7702   0.0000   0.0000   0.0000  -1.2938
  -7.300  -0.0697   0.06446   0.06083  -0.1102  0.8480  0.0720  -1.7769   0.0000   0.0000   0.0000  -1.4033
  -7.000  -0.0867   0.04045   0.03609  -0.1401  0.8398  0.0587  -2.5916   0.0000   0.0000   0.0000  -1.4245
  -6.900  -0.0987   0.02831   0.02250  -0.1451  0.8376  0.0480  -3.1684   0.0000   0.0000   0.0000  -1.2766
  -6.800  -0.0897   0.02720   0.02119  -0.1454  0.8366  0.0481  -3.1539   0.0000   0.0000   0.0000  -1.4310
  -6.700  -0.0809   0.02637   0.02022  -0.1455  0.8347  0.0484  -3.1287   0.0000   0.0000   0.0000  -1.6138
  -6.600  -0.0718   0.02562   0.01933  -0.1456  0.8328  0.0487  -3.0985   0.0000   0.0000   0.0000  -1.8511
  -6.500  -0.0622   0.02490   0.01847  -0.1456  0.8312  0.0490  -3.0653   0.0000   0.0000   0.0000  -2.1764
  -6.400  -0.0522   0.02421   0.01762  -0.1457  0.8299  0.0495  -3.0301   0.0000   0.0000   0.0000  -2.6413
  -6.300  -0.0418   0.02358   0.01681  -0.1457  0.8287  0.0502  -2.9927   0.0000   0.0000   0.0000  -3.3544
  -6.200  -0.0312   0.02299   0.01599  -0.1458  0.8278  0.0510  -2.9576   0.0000   0.0000   0.0000  -4.5780
  -6.100  -0.0215   0.02249   0.01534  -0.1457  0.8259  0.0517  -2.9189   0.0000   0.0000   0.0000  -6.7572
  -6.000  -0.0117   0.02209   0.01498  -0.1458  0.8240  0.0523  -2.8610   0.0000   0.0000   0.0000  -12.6362
  -5.900  -0.0013   0.02182   0.01472  -0.1458  0.8225  0.0530  -2.8037   0.0000   0.0000   0.0000  -120.0726
  -5.800   0.0095   0.02151   0.01438  -0.1458  0.8212  0.0537  -2.7513   0.0000   0.0000   0.0000  16.1178
  -5.700   0.0204   0.02114   0.01394  -0.1458  0.8201  0.0544  -2.7045   0.0000   0.0000   0.0000   7.6168
  -5.600   0.0315   0.02074   0.01344  -0.1458  0.8191  0.0551  -2.6606   0.0000   0.0000   0.0000   5.0190
  -5.500   0.0422   0.02040   0.01298  -0.1457  0.8177  0.0559  -2.6200   0.0000   0.0000   0.0000   3.8108
  -5.400   0.0524   0.02013   0.01259  -0.1456  0.8156  0.0567  -2.5818   0.0000   0.0000   0.0000   3.1142
  -5.300   0.0626   0.01974   0.01220  -0.1456  0.8140  0.0575  -2.5325   0.0000   0.0000   0.0000   2.6423
  -5.200   0.0734   0.01949   0.01198  -0.1456  0.8126  0.0585  -2.4745   0.0000   0.0000   0.0000   2.2919
  -5.100   0.0844   0.01928   0.01176  -0.1456  0.8114  0.0597  -2.4177   0.0000   0.0000   0.0000   2.0230
  -5.000   0.0958   0.01905   0.01147  -0.1456  0.8104  0.0610  -2.3652   0.0000   0.0000   0.0000   1.8125
  -4.900   0.1074   0.01883   0.01111  -0.1456  0.8095  0.0624  -2.3175   0.0000   0.0000   0.0000   1.6427
  -4.800   0.1170   0.01856   0.01090  -0.1455  0.8074  0.0635  -2.2682   0.0000   0.0000   0.0000   1.5269
  -4.700   0.1273   0.01837   0.01075  -0.1454  0.8055  0.0646  -2.2141   0.0000   0.0000   0.0000   1.4227
  -4.600   0.1381   0.01818   0.01054  -0.1454  0.8040  0.0660  -2.1660   0.0000   0.0000   0.0000   1.3298
  -4.500   0.1493   0.01797   0.01027  -0.1454  0.8028  0.0675  -2.1220   0.0000   0.0000   0.0000   1.2481
  -4.400   0.1606   0.01772   0.00998  -0.1454  0.8017  0.0690  -2.0783   0.0000   0.0000   0.0000   1.1770
  -4.300   0.1718   0.01748   0.00979  -0.1454  0.8007  0.0707  -2.0260   0.0000   0.0000   0.0000   1.1164
  -4.200   0.1826   0.01736   0.00966  -0.1454  0.7993  0.0726  -1.9777   0.0000   0.0000   0.0000   1.0647
  -4.100   0.1928   0.01729   0.00953  -0.1453  0.7971  0.0748  -1.9353   0.0000   0.0000   0.0000   1.0204
  -4.000   0.2032   0.01706   0.00938  -0.1452  0.7954  0.0766  -1.8872   0.0000   0.0000   0.0000   0.9806
  -3.900   0.2142   0.01691   0.00923  -0.1452  0.7941  0.0788  -1.8384   0.0000   0.0000   0.0000   0.9425
  -3.800   0.2258   0.01677   0.00902  -0.1452  0.7929  0.0814  -1.7929   0.0000   0.0000   0.0000   0.9068
  -3.700   0.2370   0.01653   0.00884  -0.1453  0.7919  0.0838  -1.7428   0.0000   0.0000   0.0000   0.8756
  -3.600   0.2487   0.01639   0.00867  -0.1453  0.7910  0.0870  -1.6935   0.0000   0.0000   0.0000   0.8460
  -3.500   0.2585   0.01629   0.00861  -0.1452  0.7888  0.0899  -1.6491   0.0000   0.0000   0.0000   0.8227
  -3.400   0.2689   0.01620   0.00854  -0.1452  0.7869  0.0933  -1.6029   0.0000   0.0000   0.0000   0.8000
  -3.300   0.2798   0.01605   0.00840  -0.1452  0.7853  0.0970  -1.5613   0.0000   0.0000   0.0000   0.7782
  -3.200   0.2912   0.01592   0.00828  -0.1452  0.7840  0.1015  -1.5177   0.0000   0.0000   0.0000   0.7574
  -3.100   0.3027   0.01574   0.00813  -0.1453  0.7829  0.1063  -1.4736   0.0000   0.0000   0.0000   0.7381
  -3.000   0.3144   0.01558   0.00797  -0.1454  0.7820  0.1122  -1.4300   0.0000   0.0000   0.0000   0.7199
  -2.900   0.3255   0.01548   0.00788  -0.1454  0.7806  0.1189  -1.3876   0.0000   0.0000   0.0000   0.7036
  -2.800   0.3353   0.01542   0.00788  -0.1453  0.7783  0.1261  -1.3474   0.0000   0.0000   0.0000   0.6898
  -2.700   0.3461   0.01531   0.00781  -0.1453  0.7765  0.1351  -1.3054   0.0000   0.0000   0.0000   0.6758
  -2.600   0.3574   0.01516   0.00771  -0.1454  0.7751  0.1457  -1.2624   0.0000   0.0000   0.0000   0.6624
  -2.500   0.3689   0.01500   0.00761  -0.1455  0.7739  0.1586  -1.2186   0.0000   0.0000   0.0000   0.6495
  -2.400   0.3806   0.01485   0.00750  -0.1456  0.7729  0.1744  -1.1745   0.0000   0.0000   0.0000   0.6373
  -2.300   0.3925   0.01470   0.00739  -0.1458  0.7720  0.1929  -1.1300   0.0000   0.0000   0.0000   0.6257
  -2.200   0.4023   0.01465   0.00745  -0.1457  0.7697  0.2110  -1.0897   0.0000   0.0000   0.0000   0.6162
  -2.100   0.4127   0.01458   0.00746  -0.1457  0.7676  0.2314  -1.0490   0.0000   0.0000   0.0000   0.6067
  -2.000   0.4238   0.01447   0.00742  -0.1457  0.7660  0.2539  -1.0093   0.0000   0.0000   0.0000   0.5972
  -1.900   0.4353   0.01435   0.00737  -0.1458  0.7647  0.2778  -0.9690   0.0000   0.0000   0.0000   0.5881
  -1.800   0.4470   0.01422   0.00731  -0.1460  0.7636  0.3033  -0.9285   0.0000   0.0000   0.0000   0.5793
  -1.700   0.4588   0.01408   0.00724  -0.1461  0.7626  0.3302  -0.8879   0.0000   0.0000   0.0000   0.5709
  -1.600   0.4694   0.01402   0.00727  -0.1461  0.7609  0.3571  -0.8499   0.0000   0.0000   0.0000   0.5634
  -1.500   0.4792   0.01399   0.00734  -0.1460  0.7585  0.3847  -0.8135   0.0000   0.0000   0.0000   0.5566
  -1.400   0.4901   0.01391   0.00735  -0.1460  0.7568  0.4149  -0.8196   0.0000   0.0000   0.0000   0.5496
  -1.300   0.5013   0.01380   0.00733  -0.1460  0.7554  0.4465  -0.8274   0.0000   0.0000   0.0000   0.5427
  -1.200   0.5127   0.01368   0.00730  -0.1460  0.7542  0.4797  -0.8353   0.0000   0.0000   0.0000   0.5360
  -1.100   0.5242   0.01355   0.00726  -0.1460  0.7531  0.5132  -0.8433   0.0000   0.0000   0.0000   0.5295
  -0.900   0.5441   0.01348   0.00740  -0.1456  0.7492  0.5770  -0.8573   0.0000   0.0000   0.0000   0.5181
  -0.800   0.5542   0.01342   0.00744  -0.1453  0.7473  0.6089  -0.8645   0.0000   0.0000   0.0000   0.5126
  -0.700   0.5647   0.01335   0.00745  -0.1451  0.7458  0.6406  -0.8721   0.0000   0.0000   0.0000   0.5071
  -0.600   0.5755   0.01326   0.00744  -0.1448  0.7446  0.6718  -0.8800   0.0000   0.0000   0.0000   0.5017
  -0.500   0.5862   0.01318   0.00741  -0.1446  0.7435  0.7009  -0.8882   0.0000   0.0000   0.0000   0.4964
  -0.400   0.5970   0.01309   0.00736  -0.1443  0.7425  0.7284  -0.8964   0.0000   0.0000   0.0000   0.4912
  -0.300   0.6047   0.01315   0.00753  -0.1436  0.7396  0.7524  -0.9021   0.0000   0.0000   0.0000   0.4869
  -0.200   0.6137   0.01313   0.00757  -0.1430  0.7376  0.7767  -0.9090   0.0000   0.0000   0.0000   0.4823
  -0.100   0.6231   0.01307   0.00755  -0.1425  0.7360  0.8004  -0.9164   0.0000   0.0000   0.0000   0.4777
   0.000   0.6325   0.01299   0.00750  -0.1418  0.7347  0.8239  -0.9240   0.0000   0.0000   0.0000   0.4732
   0.100   0.6417   0.01290   0.00743  -0.1411  0.7335  0.8476  -0.9316   0.0000   0.0000   0.0000   0.4687
   0.200   0.6508   0.01279   0.00735  -0.1404  0.7326  0.8731  -0.9394   0.0000   0.0000   0.0000   0.4642
   0.300   0.6572   0.01283   0.00747  -0.1393  0.7295  0.9018  -0.9449   0.0000   0.0000   0.0000   0.4604
   0.400   0.6700   0.01276   0.00742  -0.1395  0.7275  0.9406  -0.9545   0.0000   0.0000   0.0000   0.4564
   0.500   0.6891   0.01267   0.00731  -0.1410  0.7259  1.0000  -0.9677   0.0000   0.0000   0.0000   0.4528
   0.600   0.7017   0.01266   0.00724  -0.1413  0.7245  1.0000  -0.9777   0.0000   0.0000   0.0000   0.4493
   0.700   0.7146   0.01263   0.00715  -0.1416  0.7234  1.0000  -0.9880   0.0000   0.0000   0.0000   0.4460
   0.800   0.7264   0.01266   0.00714  -0.1418  0.7218  1.0000  -0.9975   0.0000   0.0000   0.0000   0.4428
   0.900   0.7362   0.01276   0.00724  -0.1417  0.7189  1.0000  -1.0054   0.0000   0.0000   0.0000   0.4400
   1.000   0.7476   0.01279   0.00724  -0.1418  0.7169  1.0000  -1.0149   0.0000   0.0000   0.0000   0.4370
   1.100   0.7597   0.01278   0.00719  -0.1420  0.7153  1.0000  -1.0249   0.0000   0.0000   0.0000   0.4341
   1.200   0.7722   0.01276   0.00713  -0.1422  0.7140  1.0000  -1.0353   0.0000   0.0000   0.0000   0.4312
   1.300   0.7850   0.01274   0.00705  -0.1425  0.7128  1.0000  -1.0460   0.0000   0.0000   0.0000   0.4284
   1.400   0.7948   0.01284   0.00716  -0.1423  0.7101  1.0000  -1.0545   0.0000   0.0000   0.0000   0.4258
   1.500   0.8054   0.01289   0.00720  -0.1423  0.7077  1.0000  -1.0639   0.0000   0.0000   0.0000   0.4233
   1.600   0.8171   0.01290   0.00718  -0.1424  0.7059  1.0000  -1.0743   0.0000   0.0000   0.0000   0.4207
   1.700   0.8293   0.01288   0.00712  -0.1426  0.7044  1.0000  -1.0851   0.0000   0.0000   0.0000   0.4182
   1.800   0.8420   0.01286   0.00705  -0.1428  0.7031  1.0000  -1.0963   0.0000   0.0000   0.0000   0.4158
   1.900   0.8527   0.01291   0.00709  -0.1428  0.7009  1.0000  -1.1062   0.0000   0.0000   0.0000   0.4135
   2.000   0.8627   0.01298   0.00717  -0.1426  0.6981  1.0000  -1.1159   0.0000   0.0000   0.0000   0.4112
   2.100   0.8741   0.01299   0.00716  -0.1427  0.6960  1.0000  -1.1267   0.0000   0.0000   0.0000   0.4090
   2.200   0.8862   0.01298   0.00711  -0.1428  0.6944  1.0000  -1.1383   0.0000   0.0000   0.0000   0.4068
   2.300   0.8988   0.01295   0.00704  -0.1430  0.6930  1.0000  -1.1504   0.0000   0.0000   0.0000   0.4046
   2.400   0.9095   0.01299   0.00708  -0.1430  0.6907  1.0000  -1.1610   0.0000   0.0000   0.0000   0.4025
   2.500   0.9194   0.01307   0.00716  -0.1428  0.6878  1.0000  -1.1712   0.0000   0.0000   0.0000   0.4005
   2.600   0.9308   0.01308   0.00715  -0.1429  0.6857  1.0000  -1.1828   0.0000   0.0000   0.0000   0.3985
   2.700   0.9429   0.01306   0.00710  -0.1430  0.6839  1.0000  -1.1952   0.0000   0.0000   0.0000   0.3966
   2.800   0.9555   0.01303   0.00704  -0.1432  0.6825  1.0000  -1.2080   0.0000   0.0000   0.0000   0.3946
   2.900   0.9653   0.01310   0.00712  -0.1430  0.6797  1.0000  -1.2187   0.0000   0.0000   0.0000   0.3928
   3.000   0.9756   0.01315   0.00718  -0.1429  0.6769  1.0000  -1.2297   0.0000   0.0000   0.0000   0.3910
   3.100   0.9871   0.01315   0.00716  -0.1430  0.6748  1.0000  -1.2422   0.0000   0.0000   0.0000   0.3892
   3.200   0.9994   0.01313   0.00710  -0.1431  0.6730  1.0000  -1.2555   0.0000   0.0000   0.0000   0.3874
   3.300   1.0118   0.01311   0.00705  -0.1433  0.6714  1.0000  -1.2691   0.0000   0.0000   0.0000   0.3857
   3.400   1.0204   0.01322   0.00719  -0.1429  0.6679  1.0000  -1.2796   0.0000   0.0000   0.0000   0.3840
   3.500   1.0314   0.01324   0.00720  -0.1429  0.6653  1.0000  -1.2923   0.0000   0.0000   0.0000   0.3824
   3.600   1.0433   0.01322   0.00716  -0.1430  0.6633  1.0000  -1.3060   0.0000   0.0000   0.0000   0.3807
   3.700   1.0558   0.01319   0.00710  -0.1432  0.6616  1.0000  -1.3205   0.0000   0.0000   0.0000   0.3792
   3.800   1.0649   0.01328   0.00721  -0.1429  0.6582  1.0000  -1.3325   0.0000   0.0000   0.0000   0.3776
   3.900   1.0754   0.01331   0.00725  -0.1428  0.6553  1.0000  -1.3460   0.0000   0.0000   0.0000   0.3760
   4.000   1.0871   0.01330   0.00722  -0.1428  0.6531  1.0000  -1.3607   0.0000   0.0000   0.0000   0.3745
   4.100   1.0995   0.01328   0.00716  -0.1430  0.6512  1.0000  -1.3766   0.0000   0.0000   0.0000   0.3731
   4.200   1.1086   0.01336   0.00727  -0.1427  0.6478  1.0000  -1.3896   0.0000   0.0000   0.0000   0.3716
   4.300   1.1190   0.01339   0.00731  -0.1426  0.6448  1.0000  -1.4042   0.0000   0.0000   0.0000   0.3701
   4.400   1.1306   0.01339   0.00728  -0.1426  0.6424  1.0000  -1.4204   0.0000   0.0000   0.0000   0.3687
   4.500   1.1431   0.01337   0.00722  -0.1428  0.6405  1.0000  -1.4380   0.0000   0.0000   0.0000   0.3674
   4.600   1.1515   0.01346   0.00736  -0.1424  0.6365  1.0000  -1.4520   0.0000   0.0000   0.0000   0.3659
   4.700   1.1621   0.01349   0.00739  -0.1423  0.6336  1.0000  -1.4684   0.0000   0.0000   0.0000   0.3646
   4.800   1.1739   0.01348   0.00735  -0.1424  0.6312  1.0000  -1.4860   0.0000   0.0000   0.0000   0.3633
   4.900   1.1842   0.01352   0.00740  -0.1422  0.6281  1.0000  -1.5025   0.0000   0.0000   0.0000   0.3620
   5.000   1.1937   0.01358   0.00748  -0.1420  0.6245  1.0000  -1.5186   0.0000   0.0000   0.0000   0.3607
   5.100   1.2049   0.01359   0.00747  -0.1419  0.6216  1.0000  -1.5369   0.0000   0.0000   0.0000   0.3594
   5.200   1.2167   0.01359   0.00744  -0.1420  0.6191  1.0000  -1.5562   0.0000   0.0000   0.0000   0.3582
   5.300   1.2251   0.01368   0.00757  -0.1416  0.6149  1.0000  -1.5730   0.0000   0.0000   0.0000   0.3569
   5.400   1.2358   0.01370   0.00758  -0.1415  0.6116  1.0000  -1.5928   0.0000   0.0000   0.0000   0.3556
   5.500   1.2477   0.01370   0.00755  -0.1416  0.6090  1.0000  -1.6145   0.0000   0.0000   0.0000   0.3545
   5.600   1.2559   0.01379   0.00769  -0.1411  0.6045  1.0000  -1.6322   0.0000   0.0000   0.0000   0.3532
   5.700   1.2663   0.01382   0.00771  -0.1410  0.6010  1.0000  -1.6531   0.0000   0.0000   0.0000   0.3520
   5.800   1.2778   0.01383   0.00769  -0.1410  0.5981  1.0000  -1.6753   0.0000   0.0000   0.0000   0.3509
   5.900   1.2860   0.01393   0.00783  -0.1405  0.5935  1.0000  -1.6941   0.0000   0.0000   0.0000   0.3497
   6.000   1.2964   0.01396   0.00785  -0.1404  0.5899  1.0000  -1.7160   0.0000   0.0000   0.0000   0.3486
   6.100   1.3066   0.01401   0.00789  -0.1402  0.5862  1.0000  -1.7382   0.0000   0.0000   0.0000   0.3474
   6.200   1.3154   0.01409   0.00799  -0.1398  0.5817  1.0000  -1.7591   0.0000   0.0000   0.0000   0.3463
   6.300   1.3260   0.01413   0.00801  -0.1397  0.5781  1.0000  -1.7823   0.0000   0.0000   0.0000   0.3452
   6.400   1.3348   0.01421   0.00811  -0.1394  0.5737  1.0000  -1.8060   0.0000   0.0000   0.0000   0.3441
   6.500   1.3443   0.01428   0.00818  -0.1391  0.5694  1.0000  -1.8321   0.0000   0.0000   0.0000   0.3430
   6.600   1.3546   0.01434   0.00821  -0.1389  0.5656  1.0000  -1.8599   0.0000   0.0000   0.0000   0.3419
   6.700   1.3627   0.01444   0.00835  -0.1384  0.5606  1.0000  -1.8858   0.0000   0.0000   0.0000   0.3408
   6.800   1.3728   0.01450   0.00838  -0.1382  0.5567  1.0000  -1.9151   0.0000   0.0000   0.0000   0.3398
   6.900   1.3811   0.01460   0.00851  -0.1378  0.5517  1.0000  -1.9437   0.0000   0.0000   0.0000   0.3387
   7.000   1.3903   0.01469   0.00859  -0.1375  0.5471  1.0000  -1.9739   0.0000   0.0000   0.0000   0.3376
   7.100   1.3991   0.01479   0.00869  -0.1371  0.5423  1.0000  -2.0036   0.0000   0.0000   0.0000   0.3366
   7.200   1.4075   0.01489   0.00879  -0.1366  0.5372  1.0000  -2.0338   0.0000   0.0000   0.0000   0.3355
   7.300   1.4164   0.01499   0.00888  -0.1363  0.5326  1.0000  -2.0654   0.0000   0.0000   0.0000   0.3345
   7.400   1.4243   0.01511   0.00901  -0.1358  0.5271  1.0000  -2.0954   0.0000   0.0000   0.0000   0.3334
   7.500   1.4331   0.01522   0.00910  -0.1354  0.5224  1.0000  -2.1285   0.0000   0.0000   0.0000   0.3324
   7.600   1.4406   0.01535   0.00925  -0.1348  0.5168  1.0000  -2.1593   0.0000   0.0000   0.0000   0.3314
   7.700   1.4492   0.01548   0.00934  -0.1344  0.5121  1.0000  -2.1923   0.0000   0.0000   0.0000   0.3304
   7.800   1.4563   0.01562   0.00952  -0.1337  0.5063  1.0000  -2.2227   0.0000   0.0000   0.0000   0.3293
   7.900   1.4644   0.01576   0.00963  -0.1333  0.5014  1.0000  -2.2564   0.0000   0.0000   0.0000   0.3283
   8.000   1.4712   0.01592   0.00980  -0.1326  0.4954  1.0000  -2.2879   0.0000   0.0000   0.0000   0.3273
   8.100   1.4788   0.01607   0.00993  -0.1320  0.4903  1.0000  -2.3212   0.0000   0.0000   0.0000   0.3263
   8.200   1.4852   0.01624   0.01011  -0.1313  0.4843  1.0000  -2.3524   0.0000   0.0000   0.0000   0.3252
   8.300   1.4921   0.01641   0.01027  -0.1306  0.4789  1.0000  -2.3850   0.0000   0.0000   0.0000   0.3242
   8.400   1.4981   0.01660   0.01045  -0.1298  0.4728  1.0000  -2.4172   0.0000   0.0000   0.0000   0.3231
   8.500   1.5041   0.01679   0.01064  -0.1290  0.4669  1.0000  -2.4496   0.0000   0.0000   0.0000   0.3221
   8.600   1.5091   0.01699   0.01082  -0.1280  0.4609  1.0000  -2.4803   0.0000   0.0000   0.0000   0.3210
   8.700   1.5137   0.01720   0.01104  -0.1270  0.4549  1.0000  -2.5102   0.0000   0.0000   0.0000   0.3199
   8.800   1.5185   0.01743   0.01123  -0.1260  0.4490  1.0000  -2.5441   0.0000   0.0000   0.0000   0.3188
   8.900   1.5228   0.01766   0.01148  -0.1250  0.4427  1.0000  -2.5801   0.0000   0.0000   0.0000   0.3177
   9.000   1.5273   0.01792   0.01171  -0.1240  0.4369  1.0000  -2.6172   0.0000   0.0000   0.0000   0.3167
   9.100   1.5312   0.01819   0.01199  -0.1230  0.4305  1.0000  -2.6542   0.0000   0.0000   0.0000   0.3156
   9.200   1.5353   0.01847   0.01225  -0.1220  0.4246  1.0000  -2.6925   0.0000   0.0000   0.0000   0.3146
   9.300   1.5391   0.01878   0.01255  -0.1209  0.4184  1.0000  -2.7300   0.0000   0.0000   0.0000   0.3135
   9.400   1.5429   0.01909   0.01285  -0.1199  0.4123  1.0000  -2.7676   0.0000   0.0000   0.0000   0.3125
   9.500   1.5464   0.01942   0.01317  -0.1189  0.4063  1.0000  -2.8048   0.0000   0.0000   0.0000   0.3115
   9.600   1.5498   0.01976   0.01352  -0.1179  0.3999  1.0000  -2.8418   0.0000   0.0000   0.0000   0.3105
   9.700   1.5531   0.02014   0.01387  -0.1169  0.3940  1.0000  -2.8786   0.0000   0.0000   0.0000   0.3095
   9.800   1.5562   0.02051   0.01425  -0.1159  0.3876  1.0000  -2.9151   0.0000   0.0000   0.0000   0.3086
   9.900   1.5593   0.02091   0.01463  -0.1150  0.3815  1.0000  -2.9516   0.0000   0.0000   0.0000   0.3076
  10.000   1.5620   0.02133   0.01504  -0.1140  0.3753  1.0000  -2.9873   0.0000   0.0000   0.0000   0.3067
  10.100   1.5650   0.02175   0.01546  -0.1130  0.3689  1.0000  -3.0237   0.0000   0.0000   0.0000   0.3057
  10.200   1.5674   0.02222   0.01590  -0.1120  0.3630  1.0000  -3.0587   0.0000   0.0000   0.0000   0.3048
  10.300   1.5702   0.02267   0.01636  -0.1111  0.3564  1.0000  -3.0947   0.0000   0.0000   0.0000   0.3039
  10.400   1.5726   0.02315   0.01683  -0.1102  0.3504  1.0000  -3.1300   0.0000   0.0000   0.0000   0.3030
  10.500   1.5747   0.02366   0.01732  -0.1092  0.3441  1.0000  -3.1647   0.0000   0.0000   0.0000   0.3021
  10.600   1.5772   0.02417   0.01783  -0.1083  0.3377  1.0000  -3.2003   0.0000   0.0000   0.0000   0.3013
  10.700   1.5789   0.02472   0.01836  -0.1074  0.3318  1.0000  -3.2359   0.0000   0.0000   0.0000   0.3004
  10.800   1.5811   0.02526   0.01891  -0.1065  0.3253  1.0000  -3.2730   0.0000   0.0000   0.0000   0.2996
  10.900   1.5830   0.02583   0.01947  -0.1056  0.3191  1.0000  -3.3092   0.0000   0.0000   0.0000   0.2987
  11.000   1.5843   0.02644   0.02005  -0.1047  0.3130  1.0000  -3.3439   0.0000   0.0000   0.0000   0.2979
  11.100   1.5863   0.02702   0.02064  -0.1038  0.3065  1.0000  -3.3804   0.0000   0.0000   0.0000   0.2971
  11.200   1.5875   0.02766   0.02126  -0.1029  0.3005  1.0000  -3.4149   0.0000   0.0000   0.0000   0.2962
  11.300   1.5888   0.02830   0.02189  -0.1020  0.2942  1.0000  -3.4499   0.0000   0.0000   0.0000   0.2954
  11.400   1.5903   0.02894   0.02253  -0.1012  0.2879  1.0000  -3.4851   0.0000   0.0000   0.0000   0.2947
  11.500   1.5907   0.02966   0.02322  -0.1003  0.2822  1.0000  -3.5175   0.0000   0.0000   0.0000   0.2939
  11.600   1.5922   0.03032   0.02388  -0.0995  0.2757  1.0000  -3.5531   0.0000   0.0000   0.0000   0.2931
  11.700   1.5931   0.03103   0.02458  -0.0986  0.2697  1.0000  -3.5867   0.0000   0.0000   0.0000   0.2923
  11.800   1.5934   0.03179   0.02532  -0.0978  0.2638  1.0000  -3.6189   0.0000   0.0000   0.0000   0.2916
  11.900   1.5946   0.03250   0.02603  -0.0970  0.2575  1.0000  -3.6535   0.0000   0.0000   0.0000   0.2908
  12.000   1.5947   0.03328   0.02680  -0.0962  0.2518  1.0000  -3.6852   0.0000   0.0000   0.0000   0.2901
  12.100   1.5951   0.03406   0.02758  -0.0954  0.2457  1.0000  -3.7177   0.0000   0.0000   0.0000   0.2894
  12.200   1.5957   0.03484   0.02835  -0.0946  0.2398  1.0000  -3.7505   0.0000   0.0000   0.0000   0.2887
  12.300   1.5951   0.03571   0.02919  -0.0937  0.2344  1.0000  -3.7801   0.0000   0.0000   0.0000   0.2880
  12.400   1.5958   0.03650   0.02998  -0.0930  0.2282  1.0000  -3.8139   0.0000   0.0000   0.0000   0.2873
  12.500   1.5959   0.03734   0.03082  -0.0923  0.2226  1.0000  -3.8473   0.0000   0.0000   0.0000   0.2866
  12.600   1.5954   0.03825   0.03171  -0.0915  0.2172  1.0000  -3.8789   0.0000   0.0000   0.0000   0.2859
  12.700   1.5958   0.03910   0.03256  -0.0908  0.2113  1.0000  -3.9135   0.0000   0.0000   0.0000   0.2853
  12.800   1.5952   0.04003   0.03348  -0.0901  0.2060  1.0000  -3.9449   0.0000   0.0000   0.0000   0.2846
  12.900   1.5950   0.04096   0.03439  -0.0894  0.2004  1.0000  -3.9776   0.0000   0.0000   0.0000   0.2840
  13.000   1.5950   0.04188   0.03531  -0.0888  0.1950  1.0000  -4.0107   0.0000   0.0000   0.0000   0.2834
  13.200   1.5941   0.04383   0.03724  -0.0875  0.1846  1.0000  -4.0744   0.0000   0.0000   0.0000   0.2822
  13.300   1.5936   0.04484   0.03824  -0.0869  0.1796  1.0000  -4.1071   0.0000   0.0000   0.0000   0.2816
  13.400   1.5928   0.04588   0.03926  -0.0863  0.1747  1.0000  -4.1396   0.0000   0.0000   0.0000   0.2810
  13.500   1.5927   0.04686   0.04026  -0.0857  0.1697  1.0000  -4.1746   0.0000   0.0000   0.0000   0.2805
  13.700   1.5913   0.04897   0.04236  -0.0846  0.1604  1.0000  -4.2405   0.0000   0.0000   0.0000   0.2794
  13.800   1.5903   0.05009   0.04346  -0.0841  0.1561  1.0000  -4.2720   0.0000   0.0000   0.0000   0.2789
  13.900   1.5898   0.05116   0.04454  -0.0836  0.1516  1.0000  -4.3055   0.0000   0.0000   0.0000   0.2783
  14.000   1.5891   0.05227   0.04564  -0.0831  0.1474  1.0000  -4.3382   0.0000   0.0000   0.0000   0.2778
  14.100   1.5881   0.05341   0.04678  -0.0826  0.1434  1.0000  -4.3697   0.0000   0.0000   0.0000   0.2774
  14.200   1.5876   0.05451   0.04788  -0.0822  0.1394  1.0000  -4.4041   0.0000   0.0000   0.0000   0.2769
  14.300   1.5863   0.05571   0.04907  -0.0817  0.1358  1.0000  -4.4363   0.0000   0.0000   0.0000   0.2764
  14.400   1.5859   0.05682   0.05019  -0.0813  0.1319  1.0000  -4.4722   0.0000   0.0000   0.0000   0.2759
  14.500   1.5844   0.05805   0.05141  -0.0809  0.1285  1.0000  -4.5037   0.0000   0.0000   0.0000   0.2755
  14.600   1.5840   0.05919   0.05257  -0.0805  0.1249  1.0000  -4.5393   0.0000   0.0000   0.0000   0.2751
  14.700   1.5826   0.06044   0.05381  -0.0802  0.1217  1.0000  -4.5710   0.0000   0.0000   0.0000   0.2746
  14.800   1.5819   0.06162   0.05501  -0.0798  0.1184  1.0000  -4.6056   0.0000   0.0000   0.0000   0.2742
  14.900   1.5807   0.06288   0.05626  -0.0795  0.1154  1.0000  -4.6379   0.0000   0.0000   0.0000   0.2738
  15.000   1.5795   0.06413   0.05752  -0.0792  0.1125  1.0000  -4.6704   0.0000   0.0000   0.0000   0.2734
  15.100   1.5787   0.06536   0.05877  -0.0789  0.1095  1.0000  -4.7042   0.0000   0.0000   0.0000   0.2731
  15.200   1.5764   0.06675   0.06014  -0.0786  0.1072  1.0000  -4.7320   0.0000   0.0000   0.0000   0.2727
  15.300   1.5765   0.06789   0.06132  -0.0783  0.1041  1.0000  -4.7689   0.0000   0.0000   0.0000   0.2723
  15.400   1.5746   0.06926   0.06268  -0.0781  0.1019  1.0000  -4.7991   0.0000   0.0000   0.0000   0.2720
  15.500   1.5736   0.07053   0.06397  -0.0778  0.0994  1.0000  -4.8339   0.0000   0.0000   0.0000   0.2716
  15.600   1.5728   0.07181   0.06527  -0.0776  0.0969  1.0000  -4.8695   0.0000   0.0000   0.0000   0.2713
  15.700   1.5703   0.07326   0.06671  -0.0774  0.0951  1.0000  -4.8982   0.0000   0.0000   0.0000   0.2710
  15.800   1.5701   0.07447   0.06796  -0.0772  0.0926  1.0000  -4.9362   0.0000   0.0000   0.0000   0.2707
  15.900   1.5689   0.07582   0.06932  -0.0771  0.0905  1.0000  -4.9701   0.0000   0.0000   0.0000   0.2704
  16.000   1.5663   0.07731   0.07079  -0.0769  0.0889  1.0000  -4.9982   0.0000   0.0000   0.0000   0.2701
  16.100   1.5664   0.07852   0.07205  -0.0768  0.0866  1.0000  -5.0367   0.0000   0.0000   0.0000   0.2698
  16.200   1.5652   0.07988   0.07343  -0.0766  0.0847  1.0000  -5.0706   0.0000   0.0000   0.0000   0.2695
  16.300   1.5628   0.08136   0.07489  -0.0765  0.0833  1.0000  -5.0993   0.0000   0.0000   0.0000   0.2693
  16.400   1.5623   0.08264   0.07622  -0.0764  0.0813  1.0000  -5.1352   0.0000   0.0000   0.0000   0.2690
  16.500   1.5615   0.08398   0.07758  -0.0764  0.0795  1.0000  -5.1701   0.0000   0.0000   0.0000   0.2688
  16.600   1.5596   0.08544   0.07904  -0.0763  0.0781  1.0000  -5.2007   0.0000   0.0000   0.0000   0.2686
  16.700   1.5581   0.08684   0.08045  -0.0762  0.0767  1.0000  -5.2322   0.0000   0.0000   0.0000   0.2683
  16.800   1.5577   0.08815   0.08181  -0.0762  0.0749  1.0000  -5.2683   0.0000   0.0000   0.0000   0.2681
  16.900   1.5564   0.08956   0.08324  -0.0762  0.0734  1.0000  -5.3012   0.0000   0.0000   0.0000   0.2679
  17.000   1.5545   0.09103   0.08469  -0.0762  0.0723  1.0000  -5.3314   0.0000   0.0000   0.0000   0.2677
  17.100   1.5537   0.09239   0.08609  -0.0762  0.0708  1.0000  -5.3651   0.0000   0.0000   0.0000   0.2675
  17.200   1.5530   0.09377   0.08751  -0.0763  0.0692  1.0000  -5.3994   0.0000   0.0000   0.0000   0.2673
  17.300   1.5518   0.09519   0.08894  -0.0763  0.0680  1.0000  -5.4323   0.0000   0.0000   0.0000   0.2671
  17.400   1.5500   0.09664   0.09037  -0.0764  0.0669  1.0000  -5.4630   0.0000   0.0000   0.0000   0.2670
  17.500   1.5493   0.09800   0.09179  -0.0764  0.0656  1.0000  -5.4962   0.0000   0.0000   0.0000   0.2668
  17.600   1.5485   0.09940   0.09323  -0.0765  0.0642  1.0000  -5.5297   0.0000   0.0000   0.0000   0.2666
  17.700   1.5474   0.10082   0.09466  -0.0766  0.0630  1.0000  -5.5623   0.0000   0.0000   0.0000   0.2665
  17.800   1.5461   0.10222   0.09605  -0.0767  0.0621  1.0000  -5.5951   0.0000   0.0000   0.0000   0.2664
  17.900   1.5452   0.10360   0.09745  -0.0768  0.0609  1.0000  -5.6274   0.0000   0.0000   0.0000   0.2662
  18.000   1.5444   0.10501   0.09892  -0.0770  0.0597  1.0000  -5.6599   0.0000   0.0000   0.0000   0.2661
  18.100   1.5437   0.10641   0.10034  -0.0772  0.0586  1.0000  -5.6933   0.0000   0.0000   0.0000   0.2660
  18.200   1.5428   0.10780   0.10174  -0.0773  0.0576  1.0000  -5.7271   0.0000   0.0000   0.0000   0.2659
  18.300   1.5423   0.10901   0.10290  -0.0774  0.0568  1.0000  -5.7641   0.0000   0.0000   0.0000   0.2657
  18.400   1.5415   0.11049   0.10447  -0.0776  0.0557  1.0000  -5.7939   0.0000   0.0000   0.0000   0.2656
  18.500   1.5408   0.11192   0.10594  -0.0779  0.0546  1.0000  -5.8259   0.0000   0.0000   0.0000   0.2656
  18.600   1.5403   0.11329   0.10733  -0.0781  0.0537  1.0000  -5.8601   0.0000   0.0000   0.0000   0.2655
  18.700   1.5400   0.11457   0.10861  -0.0783  0.0528  1.0000  -5.8969   0.0000   0.0000   0.0000   0.2654
  18.800   1.5404   0.11564   0.10964  -0.0784  0.0520  1.0000  -5.9382   0.0000   0.0000   0.0000   0.2651
  18.900   1.5392   0.11722   0.11131  -0.0787  0.0511  1.0000  -5.9643   0.0000   0.0000   0.0000   0.2652
  19.000   1.5385   0.11865   0.11279  -0.0791  0.0501  1.0000  -5.9956   0.0000   0.0000   0.0000   0.2651
  19.100   1.5382   0.12000   0.11417  -0.0794  0.0493  1.0000  -6.0297   0.0000   0.0000   0.0000   0.2651
  19.200   1.5382   0.12125   0.11541  -0.0796  0.0485  1.0000  -6.0677   0.0000   0.0000   0.0000   0.2650
  19.300   1.5392   0.12224   0.11636  -0.0797  0.0478  1.0000  -6.1126   0.0000   0.0000   0.0000   0.2648
  19.400   1.5388   0.12361   0.11778  -0.0800  0.0470  1.0000  -6.1434   0.0000   0.0000   0.0000   0.2647
  19.500   1.5378   0.12515   0.11939  -0.0805  0.0462  1.0000  -6.1705   0.0000   0.0000   0.0000   0.2648
  19.600   1.5374   0.12654   0.12082  -0.0809  0.0455  1.0000  -6.2028   0.0000   0.0000   0.0000   0.2648
  19.700   1.5376   0.12781   0.12212  -0.0812  0.0448  1.0000  -6.2397   0.0000   0.0000   0.0000   0.2648
  19.800   1.5385   0.12893   0.12322  -0.0815  0.0441  1.0000  -6.2818   0.0000   0.0000   0.0000   0.2646
  19.900   1.5410   0.12960   0.12384  -0.0815  0.0435  1.0000  -6.3365   0.0000   0.0000   0.0000   0.2643
  20.000   1.5403   0.13105   0.12536  -0.0820  0.0428  1.0000  -6.3638   0.0000   0.0000   0.0000   0.2643


