xflr5 v6.57

 Calculated polar for: wine

 1 1 Reynolds number fixed          Mach number fixed         

 xtrf =   1.000 (top)        1.000 (bottom)
 Mach =   0.000     Re =     0.680 e 6     Ncrit =   9.000

  alpha     CL        CD       CDp       Cm    Top Xtr Bot Xtr   Cpmin    Chinge    XCp    
 ------- -------- --------- --------- -------- ------- ------- -------- --------- ---------
 -10.000  -0.4464   0.02241   0.01766  -0.1368  0.8129  0.0221  -6.3188   0.0000   0.0000   0.0000  -0.0773
  -9.900  -0.4366   0.02206   0.01726  -0.1370  0.8116  0.0222  -6.2296   0.0000   0.0000   0.0000  -0.0847
  -9.800  -0.4268   0.02171   0.01685  -0.1372  0.8104  0.0224  -6.1419   0.0000   0.0000   0.0000  -0.0924
  -9.700  -0.4170   0.02135   0.01643  -0.1373  0.8093  0.0226  -6.0558   0.0000   0.0000   0.0000  -0.1005
  -9.600  -0.4071   0.02098   0.01602  -0.1375  0.8077  0.0228  -5.9703   0.0000   0.0000   0.0000  -0.1091
  -9.500  -0.3971   0.02061   0.01560  -0.1376  0.8062  0.0230  -5.8856   0.0000   0.0000   0.0000  -0.1182
  -9.400  -0.3871   0.02023   0.01516  -0.1378  0.8048  0.0232  -5.8026   0.0000   0.0000   0.0000  -0.1277
  -9.300  -0.3771   0.01985   0.01471  -0.1379  0.8034  0.0234  -5.7210   0.0000   0.0000   0.0000  -0.1378
  -9.200  -0.3670   0.01948   0.01426  -0.1380  0.8022  0.0236  -5.6404   0.0000   0.0000   0.0000  -0.1484
  -9.100  -0.3568   0.01913   0.01384  -0.1382  0.8011  0.0239  -5.5662   0.0000   0.0000   0.0000  -0.1598
  -9.000  -0.3464   0.01883   0.01345  -0.1383  0.7999  0.0241  -5.4906   0.0000   0.0000   0.0000  -0.1721
  -8.900  -0.3358   0.01856   0.01311  -0.1384  0.7985  0.0243  -5.4133   0.0000   0.0000   0.0000  -0.1853
  -8.800  -0.3251   0.01834   0.01282  -0.1385  0.7970  0.0245  -5.3336   0.0000   0.0000   0.0000  -0.1997
  -8.700  -0.3153   0.01781   0.01222  -0.1386  0.7956  0.0248  -5.2693   0.0000   0.0000   0.0000  -0.2137
  -8.600  -0.3055   0.01727   0.01166  -0.1387  0.7943  0.0251  -5.1994   0.0000   0.0000   0.0000  -0.2284
  -8.500  -0.2951   0.01698   0.01135  -0.1388  0.7931  0.0253  -5.1168   0.0000   0.0000   0.0000  -0.2453
  -8.400  -0.2844   0.01676   0.01111  -0.1389  0.7920  0.0255  -5.0319   0.0000   0.0000   0.0000  -0.2638
  -8.300  -0.2736   0.01656   0.01088  -0.1390  0.7910  0.0257  -4.9478   0.0000   0.0000   0.0000  -0.2840
  -8.200  -0.2628   0.01635   0.01065  -0.1391  0.7896  0.0260  -4.8649   0.0000   0.0000   0.0000  -0.3059
  -8.100  -0.2519   0.01614   0.01042  -0.1392  0.7882  0.0262  -4.7833   0.0000   0.0000   0.0000  -0.3297
  -8.000  -0.2410   0.01593   0.01018  -0.1393  0.7869  0.0265  -4.7031   0.0000   0.0000   0.0000  -0.3557
  -7.900  -0.2301   0.01571   0.00992  -0.1393  0.7856  0.0268  -4.6243   0.0000   0.0000   0.0000  -0.3843
  -7.800  -0.2192   0.01550   0.00967  -0.1394  0.7843  0.0271  -4.5462   0.0000   0.0000   0.0000  -0.4157
  -7.700  -0.2082   0.01529   0.00941  -0.1395  0.7832  0.0274  -4.4689   0.0000   0.0000   0.0000  -0.4505
  -7.600  -0.1972   0.01509   0.00916  -0.1395  0.7821  0.0276  -4.3922   0.0000   0.0000   0.0000  -0.4894
  -7.500  -0.1862   0.01491   0.00892  -0.1396  0.7811  0.0279  -4.3155   0.0000   0.0000   0.0000  -0.5331
  -7.400  -0.1750   0.01474   0.00871  -0.1397  0.7797  0.0282  -4.2385   0.0000   0.0000   0.0000  -0.5827
  -7.300  -0.1638   0.01460   0.00853  -0.1397  0.7783  0.0284  -4.1604   0.0000   0.0000   0.0000  -0.6395
  -7.200  -0.1537   0.01412   0.00803  -0.1398  0.7770  0.0288  -4.0950   0.0000   0.0000   0.0000  -0.6982
  -7.100  -0.1428   0.01389   0.00781  -0.1399  0.7757  0.0292  -4.0164   0.0000   0.0000   0.0000  -0.7703
  -7.000  -0.1317   0.01374   0.00765  -0.1400  0.7745  0.0296  -3.9352   0.0000   0.0000   0.0000  -0.8562
  -6.900  -0.1205   0.01361   0.00751  -0.1401  0.7734  0.0299  -3.8544   0.0000   0.0000   0.0000  -0.9588
  -6.800  -0.1092   0.01349   0.00736  -0.1401  0.7724  0.0303  -3.7749   0.0000   0.0000   0.0000  -1.0830
  -6.700  -0.0980   0.01336   0.00721  -0.1402  0.7713  0.0308  -3.6974   0.0000   0.0000   0.0000  -1.2357
  -6.600  -0.0868   0.01321   0.00704  -0.1403  0.7699  0.0312  -3.6219   0.0000   0.0000   0.0000  -1.4271
  -6.500  -0.0756   0.01306   0.00687  -0.1403  0.7686  0.0316  -3.5482   0.0000   0.0000   0.0000  -1.6758
  -6.400  -0.0643   0.01293   0.00670  -0.1404  0.7673  0.0320  -3.4809   0.0000   0.0000   0.0000  -2.0133
  -6.300  -0.0529   0.01282   0.00655  -0.1404  0.7660  0.0323  -3.4131   0.0000   0.0000   0.0000  -2.4990
  -6.200  -0.0420   0.01254   0.00626  -0.1405  0.7649  0.0328  -3.3513   0.0000   0.0000   0.0000  -3.2113
  -6.100  -0.0310   0.01233   0.00604  -0.1406  0.7638  0.0333  -3.2848   0.0000   0.0000   0.0000  -4.4428
  -6.000  -0.0197   0.01220   0.00589  -0.1407  0.7628  0.0338  -3.2151   0.0000   0.0000   0.0000  -7.1247
  -5.900  -0.0084   0.01209   0.00577  -0.1408  0.7617  0.0343  -3.1458   0.0000   0.0000   0.0000  -17.0918
  -5.800   0.0029   0.01197   0.00565  -0.1408  0.7603  0.0348  -3.0778   0.0000   0.0000   0.0000  50.3564
  -5.700   0.0142   0.01186   0.00553  -0.1409  0.7589  0.0354  -3.0106   0.0000   0.0000   0.0000  10.4568
  -5.600   0.0256   0.01176   0.00541  -0.1410  0.7576  0.0360  -2.9439   0.0000   0.0000   0.0000   5.9162
  -5.500   0.0371   0.01169   0.00530  -0.1410  0.7563  0.0366  -2.8772   0.0000   0.0000   0.0000   4.1619
  -5.400   0.0483   0.01148   0.00509  -0.1411  0.7551  0.0373  -2.8145   0.0000   0.0000   0.0000   3.2599
  -5.300   0.0595   0.01134   0.00495  -0.1412  0.7540  0.0381  -2.7480   0.0000   0.0000   0.0000   2.6894
  -5.200   0.0710   0.01125   0.00485  -0.1413  0.7530  0.0388  -2.6808   0.0000   0.0000   0.0000   2.2962
  -5.100   0.0824   0.01117   0.00475  -0.1414  0.7518  0.0396  -2.6151   0.0000   0.0000   0.0000   2.0119
  -5.000   0.0938   0.01108   0.00465  -0.1414  0.7504  0.0404  -2.5510   0.0000   0.0000   0.0000   1.7978
  -4.900   0.1053   0.01100   0.00456  -0.1415  0.7490  0.0411  -2.4900   0.0000   0.0000   0.0000   1.6290
  -4.800   0.1165   0.01083   0.00439  -0.1416  0.7477  0.0420  -2.4343   0.0000   0.0000   0.0000   1.4957
  -4.700   0.1279   0.01071   0.00428  -0.1416  0.7464  0.0430  -2.3756   0.0000   0.0000   0.0000   1.3850
  -4.600   0.1394   0.01063   0.00419  -0.1417  0.7452  0.0440  -2.3166   0.0000   0.0000   0.0000   1.2915
  -4.500   0.1509   0.01056   0.00410  -0.1418  0.7441  0.0450  -2.2587   0.0000   0.0000   0.0000   1.2118
  -4.400   0.1625   0.01051   0.00401  -0.1419  0.7431  0.0461  -2.2013   0.0000   0.0000   0.0000   1.1431
  -4.300   0.1739   0.01037   0.00388  -0.1420  0.7419  0.0474  -2.1454   0.0000   0.0000   0.0000   1.0848
  -4.200   0.1852   0.01029   0.00381  -0.1420  0.7404  0.0487  -2.0876   0.0000   0.0000   0.0000   1.0335
  -4.100   0.1967   0.01022   0.00375  -0.1421  0.7390  0.0501  -2.0305   0.0000   0.0000   0.0000   0.9877
  -4.000   0.2083   0.01018   0.00368  -0.1422  0.7376  0.0515  -1.9743   0.0000   0.0000   0.0000   0.9467
  -3.900   0.2196   0.01004   0.00356  -0.1423  0.7363  0.0532  -1.9192   0.0000   0.0000   0.0000   0.9107
  -3.800   0.2312   0.00998   0.00349  -0.1424  0.7351  0.0548  -1.8630   0.0000   0.0000   0.0000   0.8777
  -3.700   0.2428   0.00993   0.00342  -0.1424  0.7340  0.0566  -1.8079   0.0000   0.0000   0.0000   0.8476
  -3.600   0.2543   0.00983   0.00332  -0.1425  0.7329  0.0585  -1.7536   0.0000   0.0000   0.0000   0.8206
  -3.500   0.2658   0.00977   0.00326  -0.1426  0.7316  0.0607  -1.6998   0.0000   0.0000   0.0000   0.7959
  -3.400   0.2772   0.00970   0.00320  -0.1427  0.7301  0.0631  -1.6507   0.0000   0.0000   0.0000   0.7733
  -3.300   0.2887   0.00961   0.00314  -0.1428  0.7287  0.0658  -1.6012   0.0000   0.0000   0.0000   0.7526
  -3.100   0.3117   0.00948   0.00301  -0.1429  0.7259  0.0722  -1.5034   0.0000   0.0000   0.0000   0.7154
  -3.000   0.3233   0.00941   0.00295  -0.1430  0.7247  0.0760  -1.4550   0.0000   0.0000   0.0000   0.6987
  -2.900   0.3348   0.00935   0.00289  -0.1431  0.7235  0.0805  -1.4068   0.0000   0.0000   0.0000   0.6832
  -2.800   0.3464   0.00929   0.00283  -0.1432  0.7224  0.0856  -1.3588   0.0000   0.0000   0.0000   0.6688
  -2.700   0.3578   0.00921   0.00280  -0.1433  0.7208  0.0915  -1.3116   0.0000   0.0000   0.0000   0.6554
  -2.600   0.3692   0.00914   0.00275  -0.1434  0.7192  0.0985  -1.2647   0.0000   0.0000   0.0000   0.6429
  -2.500   0.3807   0.00907   0.00271  -0.1434  0.7177  0.1065  -1.2179   0.0000   0.0000   0.0000   0.6310
  -2.400   0.3922   0.00900   0.00267  -0.1435  0.7163  0.1158  -1.1714   0.0000   0.0000   0.0000   0.6199
  -2.300   0.4037   0.00893   0.00263  -0.1436  0.7150  0.1262  -1.1252   0.0000   0.0000   0.0000   0.6093
  -2.200   0.4152   0.00887   0.00259  -0.1437  0.7138  0.1373  -1.0793   0.0000   0.0000   0.0000   0.5994
  -2.100   0.4268   0.00881   0.00256  -0.1439  0.7126  0.1495  -1.0337   0.0000   0.0000   0.0000   0.5899
  -2.000   0.4382   0.00875   0.00254  -0.1439  0.7111  0.1622  -0.9923   0.0000   0.0000   0.0000   0.5811
  -1.900   0.4496   0.00868   0.00252  -0.1440  0.7094  0.1751  -0.9512   0.0000   0.0000   0.0000   0.5727
  -1.800   0.4610   0.00861   0.00250  -0.1441  0.7079  0.1888  -0.9103   0.0000   0.0000   0.0000   0.5646
  -1.700   0.4725   0.00856   0.00248  -0.1442  0.7064  0.2030  -0.8697   0.0000   0.0000   0.0000   0.5570
  -1.600   0.4840   0.00849   0.00246  -0.1443  0.7050  0.2180  -0.8295   0.0000   0.0000   0.0000   0.5497
  -1.500   0.4955   0.00844   0.00243  -0.1444  0.7037  0.2339  -0.8347   0.0000   0.0000   0.0000   0.5427
  -1.400   0.5071   0.00839   0.00241  -0.1445  0.7025  0.2499  -0.8423   0.0000   0.0000   0.0000   0.5361
  -1.300   0.5184   0.00833   0.00241  -0.1446  0.7009  0.2668  -0.8497   0.0000   0.0000   0.0000   0.5298
  -1.200   0.5298   0.00827   0.00241  -0.1447  0.6991  0.2846  -0.8571   0.0000   0.0000   0.0000   0.5237
  -1.100   0.5412   0.00821   0.00240  -0.1448  0.6975  0.3039  -0.8650   0.0000   0.0000   0.0000   0.5179
  -1.000   0.5526   0.00814   0.00239  -0.1449  0.6959  0.3243  -0.8729   0.0000   0.0000   0.0000   0.5124
  -0.900   0.5641   0.00808   0.00238  -0.1450  0.6944  0.3452  -0.8808   0.0000   0.0000   0.0000   0.5070
  -0.800   0.5755   0.00803   0.00237  -0.1451  0.6931  0.3674  -0.8888   0.0000   0.0000   0.0000   0.5019
  -0.700   0.5870   0.00798   0.00237  -0.1452  0.6916  0.3909  -0.8969   0.0000   0.0000   0.0000   0.4970
  -0.600   0.5982   0.00791   0.00238  -0.1453  0.6898  0.4156  -0.9049   0.0000   0.0000   0.0000   0.4922
  -0.500   0.6096   0.00784   0.00239  -0.1453  0.6880  0.4405  -0.9130   0.0000   0.0000   0.0000   0.4877
  -0.400   0.6209   0.00778   0.00239  -0.1454  0.6863  0.4666  -0.9212   0.0000   0.0000   0.0000   0.4833
  -0.300   0.6322   0.00772   0.00240  -0.1455  0.6847  0.4927  -0.9295   0.0000   0.0000   0.0000   0.4790
  -0.200   0.6436   0.00767   0.00240  -0.1455  0.6833  0.5187  -0.9379   0.0000   0.0000   0.0000   0.4749
  -0.100   0.6550   0.00763   0.00241  -0.1456  0.6819  0.5445  -0.9463   0.0000   0.0000   0.0000   0.4709
   0.000   0.6661   0.00757   0.00243  -0.1456  0.6800  0.5698  -0.9545   0.0000   0.0000   0.0000   0.4670
   0.100   0.6773   0.00752   0.00246  -0.1457  0.6781  0.5957  -0.9628   0.0000   0.0000   0.0000   0.4633
   0.200   0.6884   0.00747   0.00248  -0.1457  0.6763  0.6221  -0.9713   0.0000   0.0000   0.0000   0.4597
   0.300   0.6995   0.00742   0.00249  -0.1456  0.6746  0.6489  -0.9799   0.0000   0.0000   0.0000   0.4562
   0.400   0.7107   0.00739   0.00251  -0.1456  0.6731  0.6736  -0.9887   0.0000   0.0000   0.0000   0.4527
   0.600   0.7327   0.00734   0.00256  -0.1455  0.6696  0.7158  -1.0062   0.0000   0.0000   0.0000   0.4461
   0.800   0.7545   0.00728   0.00260  -0.1454  0.6656  0.7526  -1.0244   0.0000   0.0000   0.0000   0.4399
   0.900   0.7654   0.00726   0.00261  -0.1453  0.6638  0.7705  -1.0336   0.0000   0.0000   0.0000   0.4369
   1.000   0.7762   0.00725   0.00262  -0.1452  0.6621  0.7878  -1.0428   0.0000   0.0000   0.0000   0.4340
   1.100   0.7869   0.00723   0.00265  -0.1450  0.6603  0.8048  -1.0520   0.0000   0.0000   0.0000   0.4311
   1.200   0.7973   0.00721   0.00267  -0.1448  0.6581  0.8220  -1.0612   0.0000   0.0000   0.0000   0.4283
   1.300   0.8076   0.00718   0.00269  -0.1446  0.6560  0.8390  -1.0703   0.0000   0.0000   0.0000   0.4256
   1.400   0.8177   0.00715   0.00270  -0.1443  0.6540  0.8568  -1.0793   0.0000   0.0000   0.0000   0.4229
   1.500   0.8274   0.00712   0.00271  -0.1439  0.6522  0.8769  -1.0883   0.0000   0.0000   0.0000   0.4202
   1.600   0.8365   0.00709   0.00271  -0.1434  0.6505  0.9009  -1.0973   0.0000   0.0000   0.0000   0.4175
   1.700   0.8458   0.00702   0.00272  -0.1428  0.6482  0.9345  -1.1063   0.0000   0.0000   0.0000   0.4149
   1.800   0.8628   0.00697   0.00269  -0.1441  0.6458  1.0000  -1.1200   0.0000   0.0000   0.0000   0.4128
   1.900   0.8742   0.00700   0.00270  -0.1441  0.6437  1.0000  -1.1303   0.0000   0.0000   0.0000   0.4106
   2.000   0.8856   0.00703   0.00270  -0.1442  0.6417  1.0000  -1.1412   0.0000   0.0000   0.0000   0.4084
   2.100   0.8970   0.00707   0.00272  -0.1443  0.6397  1.0000  -1.1521   0.0000   0.0000   0.0000   0.4063
   2.200   0.9084   0.00709   0.00274  -0.1444  0.6371  1.0000  -1.1630   0.0000   0.0000   0.0000   0.4042
   2.300   0.9197   0.00711   0.00276  -0.1444  0.6346  1.0000  -1.1742   0.0000   0.0000   0.0000   0.4022
   2.400   0.9310   0.00715   0.00277  -0.1445  0.6324  1.0000  -1.1853   0.0000   0.0000   0.0000   0.4002
   2.500   0.9422   0.00719   0.00278  -0.1445  0.6303  1.0000  -1.1968   0.0000   0.0000   0.0000   0.3983
   2.600   0.9535   0.00722   0.00281  -0.1446  0.6277  1.0000  -1.2083   0.0000   0.0000   0.0000   0.3964
   2.700   0.9647   0.00725   0.00284  -0.1446  0.6250  1.0000  -1.2200   0.0000   0.0000   0.0000   0.3945
   2.800   0.9759   0.00728   0.00286  -0.1446  0.6225  1.0000  -1.2319   0.0000   0.0000   0.0000   0.3927
   2.900   0.9871   0.00733   0.00287  -0.1447  0.6202  1.0000  -1.2437   0.0000   0.0000   0.0000   0.3909
   3.000   0.9982   0.00736   0.00290  -0.1447  0.6176  1.0000  -1.2555   0.0000   0.0000   0.0000   0.3892
   3.100   1.0094   0.00739   0.00293  -0.1447  0.6148  1.0000  -1.2677   0.0000   0.0000   0.0000   0.3875
   3.200   1.0205   0.00743   0.00296  -0.1448  0.6121  1.0000  -1.2802   0.0000   0.0000   0.0000   0.3858
   3.300   1.0315   0.00748   0.00299  -0.1447  0.6096  1.0000  -1.2927   0.0000   0.0000   0.0000   0.3842
   3.400   1.0426   0.00752   0.00302  -0.1448  0.6068  1.0000  -1.3053   0.0000   0.0000   0.0000   0.3826
   3.500   1.0537   0.00755   0.00306  -0.1448  0.6038  1.0000  -1.3181   0.0000   0.0000   0.0000   0.3810
   3.600   1.0646   0.00760   0.00309  -0.1448  0.6009  1.0000  -1.3310   0.0000   0.0000   0.0000   0.3795
   3.800   1.0865   0.00769   0.00316  -0.1448  0.5951  1.0000  -1.3580   0.0000   0.0000   0.0000   0.3764
   3.900   1.0974   0.00774   0.00320  -0.1448  0.5918  1.0000  -1.3720   0.0000   0.0000   0.0000   0.3750
   4.000   1.1081   0.00780   0.00324  -0.1447  0.5888  1.0000  -1.3862   0.0000   0.0000   0.0000   0.3735
   4.100   1.1190   0.00784   0.00328  -0.1447  0.5856  1.0000  -1.4008   0.0000   0.0000   0.0000   0.3721
   4.200   1.1298   0.00789   0.00332  -0.1447  0.5821  1.0000  -1.4156   0.0000   0.0000   0.0000   0.3707
   4.300   1.1405   0.00795   0.00336  -0.1446  0.5787  1.0000  -1.4307   0.0000   0.0000   0.0000   0.3693
   4.400   1.1511   0.00801   0.00341  -0.1446  0.5753  1.0000  -1.4466   0.0000   0.0000   0.0000   0.3680
   4.500   1.1619   0.00806   0.00346  -0.1445  0.5715  1.0000  -1.4628   0.0000   0.0000   0.0000   0.3666
   4.600   1.1723   0.00813   0.00351  -0.1445  0.5679  1.0000  -1.4791   0.0000   0.0000   0.0000   0.3653
   4.700   1.1829   0.00819   0.00356  -0.1444  0.5643  1.0000  -1.4956   0.0000   0.0000   0.0000   0.3640
   4.800   1.1935   0.00824   0.00362  -0.1443  0.5602  1.0000  -1.5121   0.0000   0.0000   0.0000   0.3628
   4.900   1.2037   0.00832   0.00367  -0.1442  0.5565  1.0000  -1.5289   0.0000   0.0000   0.0000   0.3615
   5.000   1.2143   0.00838   0.00373  -0.1441  0.5524  1.0000  -1.5464   0.0000   0.0000   0.0000   0.3603
   5.100   1.2246   0.00845   0.00379  -0.1440  0.5482  1.0000  -1.5638   0.0000   0.0000   0.0000   0.3590
   5.200   1.2347   0.00854   0.00385  -0.1439  0.5443  1.0000  -1.5826   0.0000   0.0000   0.0000   0.3578
   5.300   1.2452   0.00860   0.00391  -0.1438  0.5398  1.0000  -1.6021   0.0000   0.0000   0.0000   0.3566
   5.400   1.2552   0.00869   0.00399  -0.1437  0.5356  1.0000  -1.6218   0.0000   0.0000   0.0000   0.3554
   5.500   1.2654   0.00877   0.00405  -0.1436  0.5313  1.0000  -1.6418   0.0000   0.0000   0.0000   0.3543
   5.600   1.2755   0.00885   0.00413  -0.1434  0.5267  1.0000  -1.6624   0.0000   0.0000   0.0000   0.3531
   5.700   1.2853   0.00894   0.00420  -0.1432  0.5223  1.0000  -1.6828   0.0000   0.0000   0.0000   0.3520
   5.800   1.2954   0.00903   0.00428  -0.1431  0.5173  1.0000  -1.7036   0.0000   0.0000   0.0000   0.3509
   5.900   1.3048   0.00914   0.00436  -0.1428  0.5126  1.0000  -1.7244   0.0000   0.0000   0.0000   0.3497
   6.000   1.3148   0.00922   0.00444  -0.1427  0.5072  1.0000  -1.7463   0.0000   0.0000   0.0000   0.3486
   6.200   1.3340   0.00943   0.00462  -0.1422  0.4968  1.0000  -1.7901   0.0000   0.0000   0.0000   0.3465
   6.400   1.3528   0.00965   0.00481  -0.1417  0.4863  1.0000  -1.8397   0.0000   0.0000   0.0000   0.3443
   6.500   1.3617   0.00978   0.00491  -0.1414  0.4811  1.0000  -1.8656   0.0000   0.0000   0.0000   0.3432
   6.600   1.3712   0.00989   0.00501  -0.1412  0.4757  1.0000  -1.8935   0.0000   0.0000   0.0000   0.3422
   6.700   1.3800   0.01003   0.00512  -0.1409  0.4704  1.0000  -1.9215   0.0000   0.0000   0.0000   0.3411
   6.800   1.3893   0.01014   0.00523  -0.1406  0.4648  1.0000  -1.9517   0.0000   0.0000   0.0000   0.3401
   7.000   1.4069   0.01041   0.00547  -0.1399  0.4535  1.0000  -2.0113   0.0000   0.0000   0.0000   0.3381
   7.100   1.4150   0.01057   0.00560  -0.1395  0.4479  1.0000  -2.0414   0.0000   0.0000   0.0000   0.3370
   7.200   1.4237   0.01070   0.00572  -0.1391  0.4415  1.0000  -2.0726   0.0000   0.0000   0.0000   0.3360
   7.300   1.4317   0.01086   0.00585  -0.1386  0.4352  1.0000  -2.1039   0.0000   0.0000   0.0000   0.3350
   7.400   1.4395   0.01103   0.00600  -0.1381  0.4284  1.0000  -2.1352   0.0000   0.0000   0.0000   0.3340
   7.500   1.4474   0.01120   0.00614  -0.1377  0.4217  1.0000  -2.1669   0.0000   0.0000   0.0000   0.3330
   7.600   1.4546   0.01139   0.00630  -0.1371  0.4152  1.0000  -2.1975   0.0000   0.0000   0.0000   0.3319
   7.700   1.4622   0.01156   0.00645  -0.1366  0.4084  1.0000  -2.2294   0.0000   0.0000   0.0000   0.3309
   7.800   1.4691   0.01174   0.00661  -0.1359  0.4022  1.0000  -2.2611   0.0000   0.0000   0.0000   0.3299
   7.900   1.4753   0.01193   0.00678  -0.1351  0.3959  1.0000  -2.2917   0.0000   0.0000   0.0000   0.3288
   8.000   1.4821   0.01211   0.00694  -0.1345  0.3895  1.0000  -2.3237   0.0000   0.0000   0.0000   0.3278
   8.100   1.4881   0.01233   0.00713  -0.1337  0.3833  1.0000  -2.3541   0.0000   0.0000   0.0000   0.3267
   8.200   1.4945   0.01253   0.00731  -0.1330  0.3766  1.0000  -2.3860   0.0000   0.0000   0.0000   0.3257
   8.300   1.5007   0.01275   0.00751  -0.1322  0.3702  1.0000  -2.4184   0.0000   0.0000   0.0000   0.3247
   8.400   1.5061   0.01300   0.00773  -0.1314  0.3639  1.0000  -2.4498   0.0000   0.0000   0.0000   0.3236
   8.500   1.5125   0.01322   0.00794  -0.1307  0.3574  1.0000  -2.4829   0.0000   0.0000   0.0000   0.3227
   8.600   1.5179   0.01348   0.00818  -0.1299  0.3513  1.0000  -2.5144   0.0000   0.0000   0.0000   0.3217
   8.700   1.5236   0.01374   0.00841  -0.1292  0.3448  1.0000  -2.5481   0.0000   0.0000   0.0000   0.3207
   8.800   1.5293   0.01400   0.00865  -0.1284  0.3387  1.0000  -2.5899   0.0000   0.0000   0.0000   0.3197
   9.000   1.5398   0.01458   0.00919  -0.1269  0.3259  1.0000  -2.6719   0.0000   0.0000   0.0000   0.3178
   9.100   1.5448   0.01489   0.00948  -0.1261  0.3196  1.0000  -2.7125   0.0000   0.0000   0.0000   0.3169
   9.200   1.5496   0.01522   0.00978  -0.1253  0.3132  1.0000  -2.7527   0.0000   0.0000   0.0000   0.3159
   9.300   1.5549   0.01553   0.01007  -0.1246  0.3069  1.0000  -2.7945   0.0000   0.0000   0.0000   0.3150
   9.400   1.5593   0.01589   0.01041  -0.1238  0.3007  1.0000  -2.8342   0.0000   0.0000   0.0000   0.3141
   9.500   1.5641   0.01624   0.01074  -0.1231  0.2941  1.0000  -2.8749   0.0000   0.0000   0.0000   0.3132
   9.600   1.5689   0.01660   0.01108  -0.1223  0.2879  1.0000  -2.9158   0.0000   0.0000   0.0000   0.3123
   9.700   1.5729   0.01701   0.01146  -0.1215  0.2818  1.0000  -2.9548   0.0000   0.0000   0.0000   0.3114
   9.800   1.5776   0.01738   0.01181  -0.1208  0.2753  1.0000  -2.9961   0.0000   0.0000   0.0000   0.3105
   9.900   1.5819   0.01778   0.01220  -0.1200  0.2690  1.0000  -3.0362   0.0000   0.0000   0.0000   0.3097
  10.000   1.5855   0.01824   0.01262  -0.1192  0.2629  1.0000  -3.0745   0.0000   0.0000   0.0000   0.3088
  10.100   1.5900   0.01864   0.01301  -0.1185  0.2563  1.0000  -3.1156   0.0000   0.0000   0.0000   0.3080
  10.200   1.5939   0.01908   0.01343  -0.1178  0.2503  1.0000  -3.1551   0.0000   0.0000   0.0000   0.3071
  10.400   1.6013   0.02001   0.01431  -0.1162  0.2379  1.0000  -3.2377   0.0000   0.0000   0.0000   0.3055
  10.500   1.6047   0.02050   0.01478  -0.1155  0.2317  1.0000  -3.2785   0.0000   0.0000   0.0000   0.3046
  10.600   1.6074   0.02105   0.01529  -0.1146  0.2254  1.0000  -3.3174   0.0000   0.0000   0.0000   0.3038
  10.700   1.6108   0.02155   0.01577  -0.1139  0.2186  1.0000  -3.3587   0.0000   0.0000   0.0000   0.3030
  10.800   1.6137   0.02209   0.01629  -0.1131  0.2121  1.0000  -3.3986   0.0000   0.0000   0.0000   0.3022
  10.900   1.6162   0.02266   0.01683  -0.1123  0.2056  1.0000  -3.4372   0.0000   0.0000   0.0000   0.3014
  11.000   1.6184   0.02326   0.01739  -0.1114  0.1991  1.0000  -3.4753   0.0000   0.0000   0.0000   0.3006
  11.100   1.6212   0.02382   0.01793  -0.1107  0.1927  1.0000  -3.5153   0.0000   0.0000   0.0000   0.2998
  11.200   1.6237   0.02440   0.01849  -0.1099  0.1867  1.0000  -3.5546   0.0000   0.0000   0.0000   0.2990
  11.300   1.6258   0.02502   0.01908  -0.1091  0.1811  1.0000  -3.5926   0.0000   0.0000   0.0000   0.2983
  11.400   1.6285   0.02560   0.01964  -0.1084  0.1755  1.0000  -3.6327   0.0000   0.0000   0.0000   0.2975
  11.500   1.6311   0.02619   0.02021  -0.1076  0.1704  1.0000  -3.6724   0.0000   0.0000   0.0000   0.2967
  11.600   1.6330   0.02683   0.02083  -0.1068  0.1655  1.0000  -3.7103   0.0000   0.0000   0.0000   0.2960
  11.700   1.6360   0.02741   0.02140  -0.1061  0.1605  1.0000  -3.7515   0.0000   0.0000   0.0000   0.2953
  11.800   1.6382   0.02804   0.02202  -0.1054  0.1559  1.0000  -3.7904   0.0000   0.0000   0.0000   0.2945
  11.900   1.6404   0.02868   0.02264  -0.1047  0.1511  1.0000  -3.8294   0.0000   0.0000   0.0000   0.2938
  12.000   1.6428   0.02930   0.02325  -0.1040  0.1467  1.0000  -3.8691   0.0000   0.0000   0.0000   0.2931
  12.100   1.6442   0.03000   0.02393  -0.1032  0.1424  1.0000  -3.9065   0.0000   0.0000   0.0000   0.2923
  12.200   1.6468   0.03061   0.02454  -0.1025  0.1379  1.0000  -3.9497   0.0000   0.0000   0.0000   0.2916
  12.300   1.6485   0.03131   0.02522  -0.1018  0.1339  1.0000  -3.9897   0.0000   0.0000   0.0000   0.2909
  12.400   1.6507   0.03197   0.02587  -0.1011  0.1297  1.0000  -4.0317   0.0000   0.0000   0.0000   0.2902
  12.500   1.6526   0.03266   0.02655  -0.1004  0.1260  1.0000  -4.0727   0.0000   0.0000   0.0000   0.2895
  12.600   1.6544   0.03335   0.02724  -0.0998  0.1221  1.0000  -4.1137   0.0000   0.0000   0.0000   0.2889
  12.700   1.6564   0.03404   0.02792  -0.0991  0.1186  1.0000  -4.1555   0.0000   0.0000   0.0000   0.2882
  12.800   1.6580   0.03478   0.02865  -0.0985  0.1150  1.0000  -4.1968   0.0000   0.0000   0.0000   0.2875
  12.900   1.6601   0.03548   0.02934  -0.0978  0.1116  1.0000  -4.2416   0.0000   0.0000   0.0000   0.2869
  13.000   1.6614   0.03624   0.03010  -0.0972  0.1082  1.0000  -4.2839   0.0000   0.0000   0.0000   0.2862
  13.100   1.6636   0.03696   0.03082  -0.0966  0.1050  1.0000  -4.3290   0.0000   0.0000   0.0000   0.2856
  13.200   1.6648   0.03775   0.03160  -0.0960  0.1018  1.0000  -4.3710   0.0000   0.0000   0.0000   0.2850
  13.300   1.6668   0.03850   0.03235  -0.0954  0.0987  1.0000  -4.4158   0.0000   0.0000   0.0000   0.2843
  13.400   1.6680   0.03931   0.03315  -0.0948  0.0957  1.0000  -4.4581   0.0000   0.0000   0.0000   0.2837
  13.500   1.6697   0.04008   0.03393  -0.0943  0.0929  1.0000  -4.5048   0.0000   0.0000   0.0000   0.2831
  13.600   1.6709   0.04090   0.03474  -0.0937  0.0900  1.0000  -4.5500   0.0000   0.0000   0.0000   0.2825
  13.700   1.6723   0.04172   0.03556  -0.0931  0.0873  1.0000  -4.5958   0.0000   0.0000   0.0000   0.2819
  13.800   1.6737   0.04254   0.03639  -0.0926  0.0846  1.0000  -4.6418   0.0000   0.0000   0.0000   0.2813
  13.900   1.6748   0.04340   0.03725  -0.0921  0.0822  1.0000  -4.6892   0.0000   0.0000   0.0000   0.2808
  14.000   1.6764   0.04422   0.03808  -0.0916  0.0796  1.0000  -4.7390   0.0000   0.0000   0.0000   0.2802
  14.100   1.6769   0.04516   0.03901  -0.0910  0.0774  1.0000  -4.7840   0.0000   0.0000   0.0000   0.2796
  14.200   1.6789   0.04596   0.03982  -0.0906  0.0750  1.0000  -4.8358   0.0000   0.0000   0.0000   0.2791
  14.300   1.6797   0.04687   0.04074  -0.0901  0.0729  1.0000  -4.8826   0.0000   0.0000   0.0000   0.2786
  14.400   1.6808   0.04776   0.04163  -0.0896  0.0710  1.0000  -4.9307   0.0000   0.0000   0.0000   0.2780
  14.500   1.6822   0.04864   0.04252  -0.0892  0.0690  1.0000  -4.9801   0.0000   0.0000   0.0000   0.2775
  14.600   1.6826   0.04961   0.04349  -0.0887  0.0672  1.0000  -5.0254   0.0000   0.0000   0.0000   0.2770
  14.700   1.6839   0.05051   0.04441  -0.0883  0.0655  1.0000  -5.0747   0.0000   0.0000   0.0000   0.2764
  14.800   1.6851   0.05142   0.04534  -0.0879  0.0637  1.0000  -5.1236   0.0000   0.0000   0.0000   0.2759
  14.900   1.6853   0.05244   0.04636  -0.0874  0.0622  1.0000  -5.1684   0.0000   0.0000   0.0000   0.2754
  15.000   1.6863   0.05339   0.04733  -0.0870  0.0607  1.0000  -5.2168   0.0000   0.0000   0.0000   0.2750
  15.100   1.6875   0.05433   0.04828  -0.0867  0.0591  1.0000  -5.2661   0.0000   0.0000   0.0000   0.2745
  15.200   1.6877   0.05537   0.04933  -0.0863  0.0577  1.0000  -5.3111   0.0000   0.0000   0.0000   0.2740
  15.300   1.6877   0.05644   0.05041  -0.0859  0.0564  1.0000  -5.3553   0.0000   0.0000   0.0000   0.2736
  15.400   1.6892   0.05736   0.05135  -0.0856  0.0550  1.0000  -5.4061   0.0000   0.0000   0.0000   0.2731
  15.500   1.6896   0.05840   0.05241  -0.0852  0.0537  1.0000  -5.4521   0.0000   0.0000   0.0000   0.2726
  15.600   1.6891   0.05954   0.05356  -0.0849  0.0525  1.0000  -5.4941   0.0000   0.0000   0.0000   0.2722
  15.700   1.6897   0.06058   0.05462  -0.0846  0.0514  1.0000  -5.5411   0.0000   0.0000   0.0000   0.2718
  15.800   1.6905   0.06159   0.05566  -0.0843  0.0502  1.0000  -5.5896   0.0000   0.0000   0.0000   0.2713
  15.900   1.6907   0.06268   0.05676  -0.0840  0.0490  1.0000  -5.6350   0.0000   0.0000   0.0000   0.2709
  16.000   1.6898   0.06391   0.05800  -0.0837  0.0480  1.0000  -5.6752   0.0000   0.0000   0.0000   0.2705
  16.100   1.6900   0.06502   0.05913  -0.0834  0.0471  1.0000  -5.7205   0.0000   0.0000   0.0000   0.2701
  16.200   1.6909   0.06605   0.06019  -0.0832  0.0460  1.0000  -5.7694   0.0000   0.0000   0.0000   0.2697
  16.300   1.6909   0.06721   0.06137  -0.0829  0.0450  1.0000  -5.8141   0.0000   0.0000   0.0000   0.2694
  16.400   1.6901   0.06844   0.06261  -0.0827  0.0441  1.0000  -5.8550   0.0000   0.0000   0.0000   0.2690
  16.500   1.6884   0.06979   0.06398  -0.0825  0.0433  1.0000  -5.8913   0.0000   0.0000   0.0000   0.2687
  16.600   1.6896   0.07081   0.06503  -0.0823  0.0423  1.0000  -5.9415   0.0000   0.0000   0.0000   0.2683
  16.700   1.6897   0.07196   0.06621  -0.0821  0.0414  1.0000  -5.9869   0.0000   0.0000   0.0000   0.2679
  16.800   1.6890   0.07321   0.06748  -0.0819  0.0405  1.0000  -6.0283   0.0000   0.0000   0.0000   0.2676
  16.900   1.6875   0.07456   0.06885  -0.0817  0.0398  1.0000  -6.0659   0.0000   0.0000   0.0000   0.2673
  17.000   1.6858   0.07596   0.07027  -0.0816  0.0391  1.0000  -6.1018   0.0000   0.0000   0.0000   0.2670
  17.100   1.6866   0.07706   0.07141  -0.0815  0.0382  1.0000  -6.1501   0.0000   0.0000   0.0000   0.2667
  17.200   1.6862   0.07831   0.07268  -0.0814  0.0374  1.0000  -6.1933   0.0000   0.0000   0.0000   0.2664
  17.300   1.6852   0.07963   0.07403  -0.0813  0.0367  1.0000  -6.2330   0.0000   0.0000   0.0000   0.2661
  17.400   1.6835   0.08106   0.07548  -0.0812  0.0360  1.0000  -6.2690   0.0000   0.0000   0.0000   0.2658
  17.500   1.6808   0.08264   0.07707  -0.0811  0.0354  1.0000  -6.2990   0.0000   0.0000   0.0000   0.2656
  17.600   1.6807   0.08386   0.07833  -0.0811  0.0347  1.0000  -6.3432   0.0000   0.0000   0.0000   0.2653
  17.700   1.6802   0.08515   0.07965  -0.0810  0.0340  1.0000  -6.3852   0.0000   0.0000   0.0000   0.2651
  17.800   1.6793   0.08650   0.08103  -0.0810  0.0334  1.0000  -6.4246   0.0000   0.0000   0.0000   0.2648
  17.900   1.6775   0.08796   0.08251  -0.0810  0.0328  1.0000  -6.4599   0.0000   0.0000   0.0000   0.2646
  18.000   1.6751   0.08951   0.08409  -0.0810  0.0322  1.0000  -6.4915   0.0000   0.0000   0.0000   0.2645
  18.100   1.6717   0.09121   0.08581  -0.0810  0.0317  1.0000  -6.5174   0.0000   0.0000   0.0000   0.2643
  18.200   1.6706   0.09261   0.08725  -0.0811  0.0312  1.0000  -6.5556   0.0000   0.0000   0.0000   0.2641
  18.300   1.6702   0.09393   0.08861  -0.0811  0.0306  1.0000  -6.5971   0.0000   0.0000   0.0000   0.2639
  18.400   1.6689   0.09537   0.09008  -0.0812  0.0301  1.0000  -6.6341   0.0000   0.0000   0.0000   0.2638
  18.500   1.6672   0.09686   0.09159  -0.0813  0.0295  1.0000  -6.6694   0.0000   0.0000   0.0000   0.2636
  18.600   1.6648   0.09847   0.09323  -0.0815  0.0291  1.0000  -6.6999   0.0000   0.0000   0.0000   0.2635
  18.700   1.6619   0.10015   0.09494  -0.0816  0.0286  1.0000  -6.7276   0.0000   0.0000   0.0000   0.2634
  18.800   1.6579   0.10200   0.09680  -0.0819  0.0283  1.0000  -6.7487   0.0000   0.0000   0.0000   0.2634
  18.900   1.6558   0.10358   0.09842  -0.0820  0.0279  1.0000  -6.7796   0.0000   0.0000   0.0000   0.2634
  19.000   1.6548   0.10501   0.09989  -0.0822  0.0274  1.0000  -6.8170   0.0000   0.0000   0.0000   0.2632
  19.100   1.6535   0.10648   0.10140  -0.0824  0.0270  1.0000  -6.8527   0.0000   0.0000   0.0000   0.2631
  19.200   1.6516   0.10803   0.10299  -0.0826  0.0266  1.0000  -6.8855   0.0000   0.0000   0.0000   0.2631
  19.300   1.6494   0.10965   0.10464  -0.0829  0.0262  1.0000  -6.9156   0.0000   0.0000   0.0000   0.2630
  19.400   1.6468   0.11133   0.10635  -0.0832  0.0258  1.0000  -6.9435   0.0000   0.0000   0.0000   0.2630
  19.500   1.6437   0.11310   0.10814  -0.0836  0.0255  1.0000  -6.9679   0.0000   0.0000   0.0000   0.2631
  19.600   1.6401   0.11495   0.11002  -0.0839  0.0252  1.0000  -6.9888   0.0000   0.0000   0.0000   0.2632
  19.700   1.6356   0.11694   0.11203  -0.0844  0.0249  1.0000  -7.0039   0.0000   0.0000   0.0000   0.2633
  19.800   1.6330   0.11867   0.11380  -0.0848  0.0246  1.0000  -7.0295   0.0000   0.0000   0.0000   0.2634
  19.900   1.6319   0.12016   0.11534  -0.0852  0.0243  1.0000  -7.0643   0.0000   0.0000   0.0000   0.2634
  20.000   1.6305   0.12170   0.11691  -0.0855  0.0240  1.0000  -7.0977   0.0000   0.0000   0.0000   0.2634


