xflr5 v6.57

 Calculated polar for: wine

 1 1 Reynolds number fixed          Mach number fixed         

 xtrf =   1.000 (top)        1.000 (bottom)
 Mach =   0.000     Re =     0.520 e 6     Ncrit =   9.000

  alpha     CL        CD       CDp       Cm    Top Xtr Bot Xtr   Cpmin    Chinge    XCp    
 ------- -------- --------- --------- -------- ------- ------- -------- --------- ---------
 -10.000  -0.4158   0.03050   0.02622  -0.1350  0.8296  0.0245  -5.8190   0.0000   0.0000   0.0000  -0.0965
  -9.900  -0.4126   0.02874   0.02423  -0.1361  0.8281  0.0247  -5.8269   0.0000   0.0000   0.0000  -0.1015
  -9.800  -0.4070   0.02741   0.02280  -0.1367  0.8266  0.0249  -5.7964   0.0000   0.0000   0.0000  -0.1075
  -9.700  -0.3991   0.02665   0.02199  -0.1370  0.8249  0.0250  -5.7320   0.0000   0.0000   0.0000  -0.1151
  -9.600  -0.3903   0.02613   0.02143  -0.1373  0.8233  0.0252  -5.6549   0.0000   0.0000   0.0000  -0.1237
  -9.500  -0.3811   0.02569   0.02095  -0.1375  0.8218  0.0253  -5.5740   0.0000   0.0000   0.0000  -0.1329
  -9.400  -0.3718   0.02526   0.02048  -0.1377  0.8205  0.0255  -5.4935   0.0000   0.0000   0.0000  -0.1427
  -9.300  -0.3624   0.02484   0.02001  -0.1379  0.8193  0.0257  -5.4142   0.0000   0.0000   0.0000  -0.1531
  -9.200  -0.3526   0.02451   0.01964  -0.1380  0.8181  0.0259  -5.3299   0.0000   0.0000   0.0000  -0.1643
  -9.100  -0.3429   0.02413   0.01923  -0.1382  0.8165  0.0261  -5.2488   0.0000   0.0000   0.0000  -0.1762
  -9.000  -0.3333   0.02371   0.01875  -0.1384  0.8149  0.0264  -5.1723   0.0000   0.0000   0.0000  -0.1888
  -8.900  -0.3237   0.02322   0.01818  -0.1386  0.8135  0.0267  -5.1011   0.0000   0.0000   0.0000  -0.2020
  -8.800  -0.3143   0.02267   0.01753  -0.1388  0.8121  0.0270  -5.0348   0.0000   0.0000   0.0000  -0.2159
  -8.700  -0.3048   0.02210   0.01683  -0.1390  0.8109  0.0273  -4.9807   0.0000   0.0000   0.0000  -0.2306
  -8.600  -0.2952   0.02152   0.01612  -0.1392  0.8098  0.0277  -4.9286   0.0000   0.0000   0.0000  -0.2465
  -8.500  -0.2854   0.02099   0.01546  -0.1394  0.8084  0.0279  -4.8755   0.0000   0.0000   0.0000  -0.2638
  -8.400  -0.2754   0.02053   0.01487  -0.1395  0.8069  0.0282  -4.8190   0.0000   0.0000   0.0000  -0.2827
  -8.300  -0.2651   0.02016   0.01438  -0.1397  0.8054  0.0284  -4.7576   0.0000   0.0000   0.0000  -0.3034
  -8.200  -0.2559   0.01932   0.01347  -0.1398  0.8040  0.0286  -4.7087   0.0000   0.0000   0.0000  -0.3233
  -8.100  -0.2459   0.01886   0.01299  -0.1399  0.8028  0.0289  -4.6380   0.0000   0.0000   0.0000  -0.3468
  -8.000  -0.2354   0.01855   0.01266  -0.1400  0.8016  0.0292  -4.5609   0.0000   0.0000   0.0000  -0.3733
  -7.900  -0.2247   0.01830   0.01238  -0.1401  0.8006  0.0294  -4.4828   0.0000   0.0000   0.0000  -0.4027
  -7.800  -0.2140   0.01805   0.01210  -0.1402  0.7994  0.0297  -4.4061   0.0000   0.0000   0.0000  -0.4352
  -7.700  -0.2033   0.01779   0.01182  -0.1402  0.7979  0.0300  -4.3313   0.0000   0.0000   0.0000  -0.4711
  -7.600  -0.1926   0.01754   0.01153  -0.1403  0.7964  0.0303  -4.2578   0.0000   0.0000   0.0000  -0.5110
  -7.500  -0.1819   0.01727   0.01122  -0.1404  0.7951  0.0306  -4.1856   0.0000   0.0000   0.0000  -0.5559
  -7.400  -0.1710   0.01701   0.01090  -0.1405  0.7938  0.0310  -4.1146   0.0000   0.0000   0.0000  -0.6067
  -7.300  -0.1601   0.01676   0.01059  -0.1405  0.7927  0.0314  -4.0440   0.0000   0.0000   0.0000  -0.6649
  -7.200  -0.1491   0.01654   0.01029  -0.1406  0.7916  0.0318  -3.9736   0.0000   0.0000   0.0000  -0.7323
  -7.100  -0.1379   0.01636   0.01002  -0.1406  0.7906  0.0322  -3.9028   0.0000   0.0000   0.0000  -0.8116
  -7.000  -0.1272   0.01604   0.00965  -0.1407  0.7891  0.0326  -3.8368   0.0000   0.0000   0.0000  -0.9004
  -6.900  -0.1169   0.01564   0.00926  -0.1408  0.7877  0.0330  -3.7682   0.0000   0.0000   0.0000  -1.0021
  -6.800  -0.1060   0.01541   0.00904  -0.1408  0.7863  0.0334  -3.6927   0.0000   0.0000   0.0000  -1.1298
  -6.700  -0.0950   0.01523   0.00885  -0.1409  0.7850  0.0338  -3.6173   0.0000   0.0000   0.0000  -1.2893
  -6.600  -0.0839   0.01505   0.00864  -0.1410  0.7838  0.0342  -3.5435   0.0000   0.0000   0.0000  -1.4922
  -6.500  -0.0728   0.01487   0.00843  -0.1410  0.7827  0.0347  -3.4710   0.0000   0.0000   0.0000  -1.7584
  -6.400  -0.0616   0.01469   0.00821  -0.1411  0.7817  0.0351  -3.4003   0.0000   0.0000   0.0000  -2.1229
  -6.300  -0.0505   0.01451   0.00800  -0.1411  0.7805  0.0356  -3.3375   0.0000   0.0000   0.0000  -2.6440
  -6.200  -0.0394   0.01433   0.00779  -0.1412  0.7790  0.0361  -3.2757   0.0000   0.0000   0.0000  -3.4568
  -6.100  -0.0282   0.01418   0.00760  -0.1412  0.7776  0.0366  -3.2136   0.0000   0.0000   0.0000  -4.9297
  -6.000  -0.0173   0.01392   0.00730  -0.1412  0.7763  0.0371  -3.1548   0.0000   0.0000   0.0000  -8.1944
  -5.900  -0.0064   0.01366   0.00705  -0.1413  0.7751  0.0376  -3.0910   0.0000   0.0000   0.0000  -22.4496
  -5.800   0.0048   0.01351   0.00691  -0.1414  0.7739  0.0382  -3.0232   0.0000   0.0000   0.0000  30.8976
  -5.700   0.0161   0.01339   0.00677  -0.1415  0.7729  0.0389  -2.9558   0.0000   0.0000   0.0000   9.3198
  -5.600   0.0275   0.01328   0.00663  -0.1415  0.7719  0.0396  -2.8901   0.0000   0.0000   0.0000   5.5578
  -5.500   0.0387   0.01316   0.00649  -0.1416  0.7705  0.0404  -2.8271   0.0000   0.0000   0.0000   4.0191
  -5.400   0.0500   0.01305   0.00635  -0.1416  0.7690  0.0411  -2.7651   0.0000   0.0000   0.0000   3.1678
  -5.300   0.0610   0.01284   0.00613  -0.1417  0.7676  0.0418  -2.7060   0.0000   0.0000   0.0000   2.6405
  -5.200   0.0720   0.01264   0.00595  -0.1417  0.7663  0.0425  -2.6432   0.0000   0.0000   0.0000   2.2736
  -5.100   0.0833   0.01252   0.00582  -0.1418  0.7651  0.0433  -2.5791   0.0000   0.0000   0.0000   1.9990
  -5.000   0.0947   0.01240   0.00569  -0.1419  0.7639  0.0442  -2.5159   0.0000   0.0000   0.0000   1.7883
  -4.900   0.1062   0.01230   0.00556  -0.1419  0.7629  0.0451  -2.4540   0.0000   0.0000   0.0000   1.6219
  -4.800   0.1177   0.01222   0.00543  -0.1420  0.7619  0.0460  -2.3981   0.0000   0.0000   0.0000   1.4871
  -4.700   0.1287   0.01202   0.00525  -0.1421  0.7604  0.0470  -2.3451   0.0000   0.0000   0.0000   1.3818
  -4.600   0.1398   0.01189   0.00515  -0.1421  0.7589  0.0481  -2.2879   0.0000   0.0000   0.0000   1.2913
  -4.500   0.1512   0.01180   0.00506  -0.1422  0.7575  0.0493  -2.2309   0.0000   0.0000   0.0000   1.2130
  -4.400   0.1626   0.01173   0.00496  -0.1422  0.7562  0.0506  -2.1753   0.0000   0.0000   0.0000   1.1450
  -4.300   0.1740   0.01160   0.00482  -0.1423  0.7550  0.0520  -2.1212   0.0000   0.0000   0.0000   1.0862
  -4.200   0.1854   0.01148   0.00470  -0.1424  0.7539  0.0534  -2.0649   0.0000   0.0000   0.0000   1.0349
  -4.100   0.1970   0.01140   0.00460  -0.1425  0.7529  0.0549  -2.0090   0.0000   0.0000   0.0000   0.9888
  -4.000   0.2085   0.01133   0.00451  -0.1426  0.7516  0.0565  -1.9550   0.0000   0.0000   0.0000   0.9480
  -3.900   0.2196   0.01119   0.00440  -0.1426  0.7500  0.0581  -1.9023   0.0000   0.0000   0.0000   0.9126
  -3.800   0.2309   0.01110   0.00432  -0.1427  0.7486  0.0599  -1.8479   0.0000   0.0000   0.0000   0.8800
  -3.700   0.2424   0.01103   0.00424  -0.1427  0.7472  0.0619  -1.7942   0.0000   0.0000   0.0000   0.8501
  -3.600   0.2538   0.01092   0.00413  -0.1428  0.7459  0.0641  -1.7411   0.0000   0.0000   0.0000   0.8231
  -3.500   0.2653   0.01084   0.00405  -0.1429  0.7447  0.0666  -1.6870   0.0000   0.0000   0.0000   0.7982
  -3.400   0.2769   0.01076   0.00395  -0.1430  0.7436  0.0693  -1.6389   0.0000   0.0000   0.0000   0.7752
  -3.300   0.2885   0.01068   0.00387  -0.1431  0.7426  0.0723  -1.5899   0.0000   0.0000   0.0000   0.7542
  -3.200   0.2998   0.01060   0.00381  -0.1432  0.7410  0.0756  -1.5430   0.0000   0.0000   0.0000   0.7351
  -3.100   0.3111   0.01051   0.00375  -0.1432  0.7394  0.0793  -1.4955   0.0000   0.0000   0.0000   0.7175
  -3.000   0.3225   0.01043   0.00368  -0.1433  0.7379  0.0836  -1.4484   0.0000   0.0000   0.0000   0.7009
  -2.900   0.3339   0.01035   0.00361  -0.1434  0.7366  0.0887  -1.4013   0.0000   0.0000   0.0000   0.6853
  -2.800   0.3455   0.01027   0.00355  -0.1435  0.7353  0.0947  -1.3541   0.0000   0.0000   0.0000   0.6708
  -2.700   0.3570   0.01018   0.00348  -0.1436  0.7341  0.1016  -1.3072   0.0000   0.0000   0.0000   0.6572
  -2.600   0.3687   0.01011   0.00341  -0.1437  0.7330  0.1098  -1.2604   0.0000   0.0000   0.0000   0.6445
  -2.500   0.3800   0.01003   0.00337  -0.1438  0.7316  0.1192  -1.2145   0.0000   0.0000   0.0000   0.6326
  -2.400   0.3912   0.00994   0.00334  -0.1438  0.7299  0.1300  -1.1691   0.0000   0.0000   0.0000   0.6216
  -2.300   0.4025   0.00986   0.00331  -0.1439  0.7283  0.1422  -1.1237   0.0000   0.0000   0.0000   0.6111
  -2.200   0.4140   0.00978   0.00327  -0.1440  0.7268  0.1552  -1.0784   0.0000   0.0000   0.0000   0.6011
  -2.100   0.4255   0.00971   0.00323  -0.1441  0.7255  0.1694  -1.0338   0.0000   0.0000   0.0000   0.5917
  -2.000   0.4370   0.00964   0.00319  -0.1442  0.7242  0.1841  -0.9922   0.0000   0.0000   0.0000   0.5827
  -1.900   0.4486   0.00957   0.00315  -0.1443  0.7231  0.1995  -0.9509   0.0000   0.0000   0.0000   0.5741
  -1.800   0.4600   0.00951   0.00314  -0.1444  0.7217  0.2151  -0.9103   0.0000   0.0000   0.0000   0.5661
  -1.700   0.4712   0.00944   0.00313  -0.1445  0.7199  0.2318  -0.8704   0.0000   0.0000   0.0000   0.5585
  -1.600   0.4825   0.00937   0.00312  -0.1446  0.7183  0.2489  -0.8306   0.0000   0.0000   0.0000   0.5512
  -1.500   0.4939   0.00930   0.00310  -0.1447  0.7167  0.2670  -0.8322   0.0000   0.0000   0.0000   0.5443
  -1.400   0.5054   0.00923   0.00308  -0.1448  0.7153  0.2859  -0.8397   0.0000   0.0000   0.0000   0.5376
  -1.300   0.5170   0.00917   0.00305  -0.1449  0.7140  0.3064  -0.8473   0.0000   0.0000   0.0000   0.5312
  -1.200   0.5286   0.00910   0.00303  -0.1450  0.7129  0.3283  -0.8551   0.0000   0.0000   0.0000   0.5250
  -1.100   0.5398   0.00904   0.00304  -0.1451  0.7113  0.3504  -0.8628   0.0000   0.0000   0.0000   0.5193
  -1.000   0.5509   0.00897   0.00304  -0.1451  0.7095  0.3737  -0.8704   0.0000   0.0000   0.0000   0.5137
  -0.900   0.5622   0.00889   0.00305  -0.1452  0.7078  0.3986  -0.8782   0.0000   0.0000   0.0000   0.5084
  -0.800   0.5735   0.00882   0.00304  -0.1453  0.7062  0.4247  -0.8861   0.0000   0.0000   0.0000   0.5032
  -0.700   0.5849   0.00875   0.00303  -0.1454  0.7047  0.4513  -0.8943   0.0000   0.0000   0.0000   0.4982
  -0.600   0.5964   0.00869   0.00303  -0.1455  0.7034  0.4792  -0.9024   0.0000   0.0000   0.0000   0.4934
  -0.500   0.6078   0.00863   0.00303  -0.1455  0.7021  0.5068  -0.9106   0.0000   0.0000   0.0000   0.4888
  -0.300   0.6297   0.00851   0.00308  -0.1455  0.6982  0.5608  -0.9267   0.0000   0.0000   0.0000   0.4800
  -0.200   0.6408   0.00845   0.00309  -0.1455  0.6965  0.5877  -0.9349   0.0000   0.0000   0.0000   0.4759
  -0.100   0.6520   0.00839   0.00310  -0.1455  0.6949  0.6148  -0.9431   0.0000   0.0000   0.0000   0.4718
   0.000   0.6631   0.00834   0.00311  -0.1455  0.6935  0.6425  -0.9514   0.0000   0.0000   0.0000   0.4678
   0.100   0.6743   0.00830   0.00312  -0.1454  0.6922  0.6690  -0.9599   0.0000   0.0000   0.0000   0.4640
   0.200   0.6849   0.00826   0.00316  -0.1453  0.6902  0.6930  -0.9680   0.0000   0.0000   0.0000   0.4603
   0.300   0.6956   0.00823   0.00319  -0.1452  0.6883  0.7153  -0.9764   0.0000   0.0000   0.0000   0.4567
   0.400   0.7064   0.00820   0.00321  -0.1451  0.6865  0.7359  -0.9850   0.0000   0.0000   0.0000   0.4532
   0.500   0.7172   0.00817   0.00322  -0.1449  0.6848  0.7553  -0.9935   0.0000   0.0000   0.0000   0.4498
   0.600   0.7280   0.00814   0.00322  -0.1448  0.6833  0.7740  -1.0023   0.0000   0.0000   0.0000   0.4465
   0.800   0.7488   0.00809   0.00326  -0.1444  0.6798  0.8106  -1.0200   0.0000   0.0000   0.0000   0.4401
   0.900   0.7589   0.00806   0.00328  -0.1441  0.6777  0.8291  -1.0286   0.0000   0.0000   0.0000   0.4370
   1.000   0.7688   0.00802   0.00329  -0.1437  0.6758  0.8478  -1.0373   0.0000   0.0000   0.0000   0.4339
   1.100   0.7784   0.00798   0.00329  -0.1433  0.6741  0.8676  -1.0460   0.0000   0.0000   0.0000   0.4309
   1.200   0.7877   0.00794   0.00327  -0.1428  0.6725  0.8901  -1.0545   0.0000   0.0000   0.0000   0.4279
   1.300   0.7968   0.00789   0.00327  -0.1422  0.6707  0.9176  -1.0629   0.0000   0.0000   0.0000   0.4250
   1.400   0.8103   0.00783   0.00325  -0.1426  0.6684  0.9588  -1.0739   0.0000   0.0000   0.0000   0.4223
   1.500   0.8256   0.00781   0.00323  -0.1435  0.6662  1.0000  -1.0862   0.0000   0.0000   0.0000   0.4201
   1.600   0.8371   0.00784   0.00323  -0.1436  0.6642  1.0000  -1.0965   0.0000   0.0000   0.0000   0.4176
   1.700   0.8487   0.00786   0.00322  -0.1437  0.6625  1.0000  -1.1069   0.0000   0.0000   0.0000   0.4153
   1.800   0.8603   0.00790   0.00323  -0.1438  0.6607  1.0000  -1.1173   0.0000   0.0000   0.0000   0.4130
   1.900   0.8715   0.00792   0.00326  -0.1438  0.6583  1.0000  -1.1273   0.0000   0.0000   0.0000   0.4108
   2.000   0.8827   0.00794   0.00327  -0.1439  0.6560  1.0000  -1.1381   0.0000   0.0000   0.0000   0.4086
   2.100   0.8941   0.00797   0.00328  -0.1439  0.6539  1.0000  -1.1490   0.0000   0.0000   0.0000   0.4065
   2.200   0.9056   0.00800   0.00328  -0.1440  0.6520  1.0000  -1.1601   0.0000   0.0000   0.0000   0.4044
   2.300   0.9170   0.00804   0.00329  -0.1441  0.6500  1.0000  -1.1713   0.0000   0.0000   0.0000   0.4023
   2.400   0.9280   0.00806   0.00332  -0.1441  0.6474  1.0000  -1.1822   0.0000   0.0000   0.0000   0.4004
   2.500   0.9392   0.00809   0.00335  -0.1441  0.6449  1.0000  -1.1936   0.0000   0.0000   0.0000   0.3984
   2.600   0.9505   0.00812   0.00336  -0.1442  0.6427  1.0000  -1.2051   0.0000   0.0000   0.0000   0.3965
   2.700   0.9619   0.00816   0.00336  -0.1442  0.6408  1.0000  -1.2170   0.0000   0.0000   0.0000   0.3946
   2.800   0.9729   0.00819   0.00339  -0.1442  0.6381  1.0000  -1.2286   0.0000   0.0000   0.0000   0.3928
   2.900   0.9839   0.00822   0.00342  -0.1442  0.6354  1.0000  -1.2404   0.0000   0.0000   0.0000   0.3910
   3.000   0.9951   0.00825   0.00344  -0.1443  0.6329  1.0000  -1.2522   0.0000   0.0000   0.0000   0.3893
   3.100   1.0063   0.00829   0.00345  -0.1443  0.6307  1.0000  -1.2644   0.0000   0.0000   0.0000   0.3875
   3.200   1.0173   0.00833   0.00349  -0.1443  0.6281  1.0000  -1.2768   0.0000   0.0000   0.0000   0.3859
   3.300   1.0282   0.00836   0.00353  -0.1443  0.6252  1.0000  -1.2892   0.0000   0.0000   0.0000   0.3842
   3.400   1.0392   0.00839   0.00355  -0.1443  0.6226  1.0000  -1.3017   0.0000   0.0000   0.0000   0.3826
   3.500   1.0503   0.00844   0.00357  -0.1443  0.6203  1.0000  -1.3147   0.0000   0.0000   0.0000   0.3810
   3.600   1.0612   0.00848   0.00361  -0.1443  0.6174  1.0000  -1.3275   0.0000   0.0000   0.0000   0.3795
   3.700   1.0721   0.00852   0.00365  -0.1443  0.6144  1.0000  -1.3407   0.0000   0.0000   0.0000   0.3779
   3.800   1.0830   0.00856   0.00368  -0.1442  0.6116  1.0000  -1.3543   0.0000   0.0000   0.0000   0.3764
   3.900   1.0939   0.00861   0.00370  -0.1442  0.6091  1.0000  -1.3684   0.0000   0.0000   0.0000   0.3749
   4.000   1.1047   0.00865   0.00376  -0.1442  0.6058  1.0000  -1.3824   0.0000   0.0000   0.0000   0.3735
   4.100   1.1154   0.00869   0.00380  -0.1442  0.6026  1.0000  -1.3969   0.0000   0.0000   0.0000   0.3721
   4.200   1.1262   0.00875   0.00383  -0.1441  0.5998  1.0000  -1.4116   0.0000   0.0000   0.0000   0.3706
   4.300   1.1369   0.00880   0.00387  -0.1441  0.5967  1.0000  -1.4268   0.0000   0.0000   0.0000   0.3693
   4.400   1.1475   0.00884   0.00392  -0.1440  0.5931  1.0000  -1.4425   0.0000   0.0000   0.0000   0.3679
   4.500   1.1581   0.00890   0.00396  -0.1439  0.5899  1.0000  -1.4585   0.0000   0.0000   0.0000   0.3665
   4.600   1.1687   0.00896   0.00401  -0.1439  0.5867  1.0000  -1.4749   0.0000   0.0000   0.0000   0.3652
   4.700   1.1792   0.00901   0.00407  -0.1438  0.5828  1.0000  -1.4912   0.0000   0.0000   0.0000   0.3639
   4.800   1.1897   0.00907   0.00411  -0.1437  0.5793  1.0000  -1.5076   0.0000   0.0000   0.0000   0.3626
   4.900   1.2001   0.00914   0.00417  -0.1436  0.5759  1.0000  -1.5245   0.0000   0.0000   0.0000   0.3614
   5.000   1.2105   0.00919   0.00423  -0.1435  0.5718  1.0000  -1.5418   0.0000   0.0000   0.0000   0.3601
   5.100   1.2207   0.00926   0.00428  -0.1434  0.5681  1.0000  -1.5592   0.0000   0.0000   0.0000   0.3589
   5.200   1.2310   0.00933   0.00434  -0.1433  0.5643  1.0000  -1.5778   0.0000   0.0000   0.0000   0.3577
   5.300   1.2413   0.00939   0.00440  -0.1431  0.5601  1.0000  -1.5970   0.0000   0.0000   0.0000   0.3565
   5.400   1.2512   0.00948   0.00447  -0.1430  0.5563  1.0000  -1.6166   0.0000   0.0000   0.0000   0.3553
   5.500   1.2615   0.00954   0.00454  -0.1428  0.5520  1.0000  -1.6365   0.0000   0.0000   0.0000   0.3541
   5.600   1.2714   0.00962   0.00461  -0.1427  0.5477  1.0000  -1.6568   0.0000   0.0000   0.0000   0.3529
   5.700   1.2813   0.00971   0.00468  -0.1425  0.5437  1.0000  -1.6773   0.0000   0.0000   0.0000   0.3518
   5.800   1.2913   0.00979   0.00476  -0.1423  0.5391  1.0000  -1.6979   0.0000   0.0000   0.0000   0.3507
   5.900   1.3009   0.00989   0.00483  -0.1421  0.5349  1.0000  -1.7189   0.0000   0.0000   0.0000   0.3495
   6.000   1.3108   0.00997   0.00491  -0.1419  0.5302  1.0000  -1.7404   0.0000   0.0000   0.0000   0.3484
   6.100   1.3203   0.01007   0.00500  -0.1417  0.5255  1.0000  -1.7622   0.0000   0.0000   0.0000   0.3473
   6.200   1.3299   0.01016   0.00509  -0.1415  0.5207  1.0000  -1.7841   0.0000   0.0000   0.0000   0.3462
   6.300   1.3393   0.01027   0.00518  -0.1412  0.5156  1.0000  -1.8069   0.0000   0.0000   0.0000   0.3451
   6.400   1.3485   0.01038   0.00528  -0.1409  0.5107  1.0000  -1.8327   0.0000   0.0000   0.0000   0.3440
   6.500   1.3578   0.01048   0.00537  -0.1406  0.5053  1.0000  -1.8590   0.0000   0.0000   0.0000   0.3430
   6.600   1.3668   0.01060   0.00548  -0.1403  0.5004  1.0000  -1.8859   0.0000   0.0000   0.0000   0.3419
   6.700   1.3759   0.01071   0.00558  -0.1400  0.4950  1.0000  -1.9137   0.0000   0.0000   0.0000   0.3409
   6.800   1.3847   0.01085   0.00569  -0.1397  0.4900  1.0000  -1.9430   0.0000   0.0000   0.0000   0.3398
   6.900   1.3936   0.01096   0.00581  -0.1394  0.4844  1.0000  -1.9729   0.0000   0.0000   0.0000   0.3388
   7.000   1.4021   0.01111   0.00593  -0.1390  0.4794  1.0000  -2.0020   0.0000   0.0000   0.0000   0.3377
   7.100   1.4108   0.01123   0.00605  -0.1386  0.4737  1.0000  -2.0329   0.0000   0.0000   0.0000   0.3367
   7.200   1.4190   0.01138   0.00618  -0.1382  0.4684  1.0000  -2.0632   0.0000   0.0000   0.0000   0.3357
   7.300   1.4274   0.01152   0.00630  -0.1377  0.4625  1.0000  -2.0945   0.0000   0.0000   0.0000   0.3347
   7.400   1.4353   0.01168   0.00644  -0.1373  0.4569  1.0000  -2.1259   0.0000   0.0000   0.0000   0.3336
   7.500   1.4431   0.01184   0.00659  -0.1367  0.4507  1.0000  -2.1573   0.0000   0.0000   0.0000   0.3326
   7.600   1.4507   0.01200   0.00673  -0.1362  0.4444  1.0000  -2.1885   0.0000   0.0000   0.0000   0.3316
   7.700   1.4575   0.01220   0.00690  -0.1356  0.4381  1.0000  -2.2186   0.0000   0.0000   0.0000   0.3305
   7.800   1.4649   0.01236   0.00706  -0.1350  0.4314  1.0000  -2.2510   0.0000   0.0000   0.0000   0.3295
   7.900   1.4708   0.01256   0.00723  -0.1342  0.4252  1.0000  -2.2812   0.0000   0.0000   0.0000   0.3284
   8.000   1.4770   0.01275   0.00740  -0.1334  0.4187  1.0000  -2.3119   0.0000   0.0000   0.0000   0.3274
   8.100   1.4832   0.01295   0.00758  -0.1326  0.4125  1.0000  -2.3427   0.0000   0.0000   0.0000   0.3263
   8.200   1.4888   0.01317   0.00778  -0.1318  0.4064  1.0000  -2.3725   0.0000   0.0000   0.0000   0.3252
   8.300   1.4951   0.01338   0.00797  -0.1311  0.4000  1.0000  -2.4051   0.0000   0.0000   0.0000   0.3242
   8.400   1.5003   0.01363   0.00820  -0.1302  0.3940  1.0000  -2.4359   0.0000   0.0000   0.0000   0.3232
   8.500   1.5062   0.01386   0.00841  -0.1294  0.3874  1.0000  -2.4681   0.0000   0.0000   0.0000   0.3222
   8.600   1.5116   0.01411   0.00865  -0.1286  0.3812  1.0000  -2.4994   0.0000   0.0000   0.0000   0.3212
   8.700   1.5166   0.01439   0.00891  -0.1278  0.3749  1.0000  -2.5300   0.0000   0.0000   0.0000   0.3202
   8.800   1.5222   0.01465   0.00916  -0.1270  0.3685  1.0000  -2.5683   0.0000   0.0000   0.0000   0.3192
   8.900   1.5268   0.01496   0.00944  -0.1261  0.3624  1.0000  -2.6074   0.0000   0.0000   0.0000   0.3182
   9.000   1.5321   0.01525   0.00972  -0.1254  0.3559  1.0000  -2.6483   0.0000   0.0000   0.0000   0.3172
   9.100   1.5370   0.01556   0.01001  -0.1246  0.3498  1.0000  -2.6885   0.0000   0.0000   0.0000   0.3163
   9.200   1.5413   0.01591   0.01033  -0.1237  0.3436  1.0000  -2.7275   0.0000   0.0000   0.0000   0.3153
   9.300   1.5465   0.01622   0.01064  -0.1230  0.3372  1.0000  -2.7687   0.0000   0.0000   0.0000   0.3144
   9.400   1.5506   0.01660   0.01099  -0.1222  0.3310  1.0000  -2.8075   0.0000   0.0000   0.0000   0.3135
   9.500   1.5552   0.01695   0.01133  -0.1214  0.3245  1.0000  -2.8475   0.0000   0.0000   0.0000   0.3126
   9.600   1.5597   0.01733   0.01169  -0.1206  0.3182  1.0000  -2.8875   0.0000   0.0000   0.0000   0.3117
   9.700   1.5632   0.01776   0.01209  -0.1198  0.3121  1.0000  -2.9252   0.0000   0.0000   0.0000   0.3108
   9.800   1.5680   0.01813   0.01245  -0.1191  0.3055  1.0000  -2.9661   0.0000   0.0000   0.0000   0.3099
   9.900   1.5718   0.01856   0.01286  -0.1183  0.2993  1.0000  -3.0050   0.0000   0.0000   0.0000   0.3090
  10.000   1.5753   0.01901   0.01329  -0.1175  0.2930  1.0000  -3.0429   0.0000   0.0000   0.0000   0.3082
  10.100   1.5796   0.01943   0.01370  -0.1167  0.2866  1.0000  -3.0830   0.0000   0.0000   0.0000   0.3073
  10.200   1.5830   0.01991   0.01415  -0.1159  0.2805  1.0000  -3.1210   0.0000   0.0000   0.0000   0.3065
  10.300   1.5864   0.02039   0.01461  -0.1152  0.2741  1.0000  -3.1593   0.0000   0.0000   0.0000   0.3057
  10.400   1.5901   0.02086   0.01506  -0.1144  0.2678  1.0000  -3.1998   0.0000   0.0000   0.0000   0.3048
  10.500   1.5930   0.02139   0.01557  -0.1136  0.2617  1.0000  -3.2389   0.0000   0.0000   0.0000   0.3040
  10.600   1.5963   0.02189   0.01605  -0.1128  0.2553  1.0000  -3.2795   0.0000   0.0000   0.0000   0.3032
  10.700   1.5996   0.02241   0.01656  -0.1121  0.2492  1.0000  -3.3200   0.0000   0.0000   0.0000   0.3024
  10.800   1.6020   0.02298   0.01710  -0.1113  0.2433  1.0000  -3.3581   0.0000   0.0000   0.0000   0.3016
  10.900   1.6051   0.02352   0.01762  -0.1105  0.2369  1.0000  -3.3984   0.0000   0.0000   0.0000   0.3008
  11.000   1.6078   0.02408   0.01817  -0.1098  0.2308  1.0000  -3.4377   0.0000   0.0000   0.0000   0.3000
  11.100   1.6097   0.02471   0.01877  -0.1089  0.2246  1.0000  -3.4748   0.0000   0.0000   0.0000   0.2992
  11.200   1.6121   0.02531   0.01934  -0.1081  0.2181  1.0000  -3.5134   0.0000   0.0000   0.0000   0.2984
  11.300   1.6144   0.02592   0.01993  -0.1074  0.2118  1.0000  -3.5518   0.0000   0.0000   0.0000   0.2977
  11.400   1.6160   0.02658   0.02057  -0.1066  0.2057  1.0000  -3.5884   0.0000   0.0000   0.0000   0.2969
  11.500   1.6176   0.02725   0.02121  -0.1057  0.1995  1.0000  -3.6248   0.0000   0.0000   0.0000   0.2961
  11.600   1.6198   0.02788   0.02183  -0.1050  0.1933  1.0000  -3.6631   0.0000   0.0000   0.0000   0.2954
  11.700   1.6214   0.02856   0.02248  -0.1042  0.1876  1.0000  -3.6999   0.0000   0.0000   0.0000   0.2946
  11.800   1.6226   0.02927   0.02317  -0.1034  0.1821  1.0000  -3.7355   0.0000   0.0000   0.0000   0.2939
  11.900   1.6248   0.02992   0.02381  -0.1027  0.1765  1.0000  -3.7742   0.0000   0.0000   0.0000   0.2932
  12.000   1.6263   0.03062   0.02449  -0.1019  0.1715  1.0000  -3.8108   0.0000   0.0000   0.0000   0.2924
  12.100   1.6278   0.03133   0.02518  -0.1012  0.1665  1.0000  -3.8474   0.0000   0.0000   0.0000   0.2917
  12.200   1.6297   0.03201   0.02585  -0.1005  0.1617  1.0000  -3.8862   0.0000   0.0000   0.0000   0.2910
  12.300   1.6307   0.03277   0.02659  -0.0998  0.1571  1.0000  -3.9237   0.0000   0.0000   0.0000   0.2903
  12.400   1.6328   0.03345   0.02727  -0.0991  0.1524  1.0000  -3.9647   0.0000   0.0000   0.0000   0.2896
  12.500   1.6341   0.03419   0.02800  -0.0984  0.1481  1.0000  -4.0034   0.0000   0.0000   0.0000   0.2890
  12.600   1.6354   0.03494   0.02874  -0.0977  0.1436  1.0000  -4.0424   0.0000   0.0000   0.0000   0.2883
  12.700   1.6371   0.03568   0.02947  -0.0971  0.1394  1.0000  -4.0823   0.0000   0.0000   0.0000   0.2876
  12.800   1.6379   0.03649   0.03027  -0.0964  0.1353  1.0000  -4.1196   0.0000   0.0000   0.0000   0.2870
  12.900   1.6398   0.03723   0.03100  -0.0958  0.1312  1.0000  -4.1611   0.0000   0.0000   0.0000   0.2863
  13.000   1.6405   0.03807   0.03183  -0.0951  0.1274  1.0000  -4.2004   0.0000   0.0000   0.0000   0.2857
  13.100   1.6423   0.03883   0.03259  -0.0945  0.1234  1.0000  -4.2439   0.0000   0.0000   0.0000   0.2851
  13.200   1.6432   0.03967   0.03342  -0.0939  0.1199  1.0000  -4.2840   0.0000   0.0000   0.0000   0.2844
  13.300   1.6447   0.04047   0.03422  -0.0933  0.1161  1.0000  -4.3262   0.0000   0.0000   0.0000   0.2838
  13.400   1.6457   0.04131   0.03506  -0.0928  0.1128  1.0000  -4.3669   0.0000   0.0000   0.0000   0.2832
  13.500   1.6469   0.04215   0.03590  -0.0922  0.1093  1.0000  -4.4086   0.0000   0.0000   0.0000   0.2826
  13.600   1.6478   0.04302   0.03676  -0.0916  0.1062  1.0000  -4.4501   0.0000   0.0000   0.0000   0.2820
  13.700   1.6490   0.04388   0.03762  -0.0911  0.1030  1.0000  -4.4943   0.0000   0.0000   0.0000   0.2815
  13.800   1.6497   0.04479   0.03853  -0.0906  0.1001  1.0000  -4.5365   0.0000   0.0000   0.0000   0.2809
  13.900   1.6509   0.04566   0.03940  -0.0901  0.0970  1.0000  -4.5812   0.0000   0.0000   0.0000   0.2803
  14.000   1.6511   0.04663   0.04037  -0.0896  0.0944  1.0000  -4.6217   0.0000   0.0000   0.0000   0.2798
  14.100   1.6526   0.04749   0.04124  -0.0891  0.0914  1.0000  -4.6673   0.0000   0.0000   0.0000   0.2792
  14.300   1.6539   0.04939   0.04315  -0.0881  0.0863  1.0000  -4.7560   0.0000   0.0000   0.0000   0.2782
  14.400   1.6540   0.05039   0.04415  -0.0877  0.0838  1.0000  -4.7991   0.0000   0.0000   0.0000   0.2777
  14.500   1.6548   0.05135   0.04512  -0.0872  0.0815  1.0000  -4.8448   0.0000   0.0000   0.0000   0.2772
  14.600   1.6555   0.05232   0.04610  -0.0868  0.0791  1.0000  -4.8904   0.0000   0.0000   0.0000   0.2767
  14.700   1.6551   0.05341   0.04720  -0.0864  0.0771  1.0000  -4.9314   0.0000   0.0000   0.0000   0.2762
  14.800   1.6564   0.05434   0.04814  -0.0860  0.0749  1.0000  -4.9800   0.0000   0.0000   0.0000   0.2757
  14.900   1.6564   0.05541   0.04921  -0.0856  0.0729  1.0000  -5.0227   0.0000   0.0000   0.0000   0.2752
  15.000   1.6565   0.05648   0.05029  -0.0852  0.0711  1.0000  -5.0658   0.0000   0.0000   0.0000   0.2748
  15.100   1.6573   0.05746   0.05129  -0.0849  0.0692  1.0000  -5.1125   0.0000   0.0000   0.0000   0.2743
  15.200   1.6569   0.05860   0.05244  -0.0845  0.0676  1.0000  -5.1534   0.0000   0.0000   0.0000   0.2739
  15.300   1.6568   0.05970   0.05356  -0.0841  0.0660  1.0000  -5.1958   0.0000   0.0000   0.0000   0.2734
  15.400   1.6576   0.06072   0.05460  -0.0838  0.0644  1.0000  -5.2424   0.0000   0.0000   0.0000   0.2730
  15.500   1.6572   0.06188   0.05577  -0.0835  0.0629  1.0000  -5.2837   0.0000   0.0000   0.0000   0.2726
  15.700   1.6570   0.06415   0.05808  -0.0829  0.0602  1.0000  -5.3686   0.0000   0.0000   0.0000   0.2718
  15.800   1.6570   0.06529   0.05924  -0.0827  0.0587  1.0000  -5.4119   0.0000   0.0000   0.0000   0.2714
  15.900   1.6560   0.06656   0.06052  -0.0824  0.0575  1.0000  -5.4502   0.0000   0.0000   0.0000   0.2710
  16.000   1.6549   0.06783   0.06181  -0.0822  0.0564  1.0000  -5.4884   0.0000   0.0000   0.0000   0.2707
  16.100   1.6557   0.06889   0.06291  -0.0819  0.0551  1.0000  -5.5350   0.0000   0.0000   0.0000   0.2703
  16.200   1.6551   0.07012   0.06415  -0.0817  0.0539  1.0000  -5.5756   0.0000   0.0000   0.0000   0.2699
  16.300   1.6538   0.07144   0.06549  -0.0815  0.0528  1.0000  -5.6125   0.0000   0.0000   0.0000   0.2696
  16.400   1.6520   0.07284   0.06690  -0.0813  0.0519  1.0000  -5.6468   0.0000   0.0000   0.0000   0.2693
  16.500   1.6527   0.07393   0.06803  -0.0812  0.0507  1.0000  -5.6934   0.0000   0.0000   0.0000   0.2689
  16.600   1.6522   0.07518   0.06931  -0.0810  0.0496  1.0000  -5.7341   0.0000   0.0000   0.0000   0.2686
  16.700   1.6508   0.07656   0.07070  -0.0809  0.0487  1.0000  -5.7704   0.0000   0.0000   0.0000   0.2683
  16.800   1.6484   0.07806   0.07221  -0.0808  0.0479  1.0000  -5.8018   0.0000   0.0000   0.0000   0.2681
  16.900   1.6479   0.07934   0.07352  -0.0807  0.0469  1.0000  -5.8424   0.0000   0.0000   0.0000   0.2678
  17.000   1.6479   0.08055   0.07477  -0.0806  0.0459  1.0000  -5.8854   0.0000   0.0000   0.0000   0.2675
  17.100   1.6468   0.08192   0.07618  -0.0805  0.0450  1.0000  -5.9228   0.0000   0.0000   0.0000   0.2672
  17.200   1.6449   0.08339   0.07766  -0.0804  0.0442  1.0000  -5.9563   0.0000   0.0000   0.0000   0.2670
  17.300   1.6418   0.08502   0.07930  -0.0804  0.0435  1.0000  -5.9836   0.0000   0.0000   0.0000   0.2668
  17.400   1.6411   0.08635   0.08067  -0.0804  0.0427  1.0000  -6.0226   0.0000   0.0000   0.0000   0.2666
  17.500   1.6408   0.08763   0.08199  -0.0804  0.0418  1.0000  -6.0637   0.0000   0.0000   0.0000   0.2664
  17.600   1.6395   0.08905   0.08345  -0.0804  0.0410  1.0000  -6.0995   0.0000   0.0000   0.0000   0.2662
  17.700   1.6375   0.09057   0.08499  -0.0804  0.0403  1.0000  -6.1320   0.0000   0.0000   0.0000   0.2660
  17.800   1.6344   0.09224   0.08667  -0.0805  0.0397  1.0000  -6.1587   0.0000   0.0000   0.0000   0.2659
  17.900   1.6314   0.09393   0.08838  -0.0806  0.0391  1.0000  -6.1849   0.0000   0.0000   0.0000   0.2658
  18.000   1.6312   0.09523   0.08973  -0.0806  0.0383  1.0000  -6.2260   0.0000   0.0000   0.0000   0.2656
  18.100   1.6304   0.09662   0.09116  -0.0807  0.0375  1.0000  -6.2638   0.0000   0.0000   0.0000   0.2654
  18.200   1.6285   0.09816   0.09272  -0.0808  0.0369  1.0000  -6.2963   0.0000   0.0000   0.0000   0.2653
  18.300   1.6261   0.09978   0.09437  -0.0810  0.0363  1.0000  -6.3256   0.0000   0.0000   0.0000   0.2652
  18.400   1.6228   0.10154   0.09615  -0.0812  0.0358  1.0000  -6.3495   0.0000   0.0000   0.0000   0.2652
  18.500   1.6184   0.10345   0.09807  -0.0815  0.0353  1.0000  -6.3667   0.0000   0.0000   0.0000   0.2652
  18.600   1.6181   0.10480   0.09947  -0.0816  0.0347  1.0000  -6.4061   0.0000   0.0000   0.0000   0.2651
  18.700   1.6169   0.10626   0.10098  -0.0818  0.0341  1.0000  -6.4411   0.0000   0.0000   0.0000   0.2649
  18.800   1.6154   0.10778   0.10254  -0.0820  0.0335  1.0000  -6.4738   0.0000   0.0000   0.0000   0.2649
  18.900   1.6131   0.10942   0.10420  -0.0823  0.0330  1.0000  -6.5025   0.0000   0.0000   0.0000   0.2649
  19.000   1.6105   0.11112   0.10593  -0.0826  0.0325  1.0000  -6.5287   0.0000   0.0000   0.0000   0.2649
  19.100   1.6070   0.11296   0.10779  -0.0830  0.0321  1.0000  -6.5497   0.0000   0.0000   0.0000   0.2650
  19.200   1.6027   0.11492   0.10976  -0.0834  0.0317  1.0000  -6.5652   0.0000   0.0000   0.0000   0.2651
  19.300   1.6009   0.11653   0.11142  -0.0837  0.0313  1.0000  -6.5948   0.0000   0.0000   0.0000   0.2651
  19.400   1.6001   0.11799   0.11292  -0.0841  0.0307  1.0000  -6.6297   0.0000   0.0000   0.0000   0.2651
  19.500   1.5986   0.11956   0.11454  -0.0844  0.0303  1.0000  -6.6608   0.0000   0.0000   0.0000   0.2651
  19.600   1.5970   0.12115   0.11616  -0.0848  0.0298  1.0000  -6.6913   0.0000   0.0000   0.0000   0.2651
  19.700   1.5949   0.12281   0.11785  -0.0853  0.0294  1.0000  -6.7192   0.0000   0.0000   0.0000   0.2652
  19.800   1.5924   0.12454   0.11961  -0.0858  0.0290  1.0000  -6.7438   0.0000   0.0000   0.0000   0.2654
  19.900   1.5894   0.12636   0.12145  -0.0863  0.0287  1.0000  -6.7648   0.0000   0.0000   0.0000   0.2655
  20.000   1.5856   0.12829   0.12339  -0.0869  0.0284  1.0000  -6.7808   0.0000   0.0000   0.0000   0.2658


