xflr5 v6.57

 Calculated polar for: wine

 1 1 Reynolds number fixed          Mach number fixed         

 xtrf =   1.000 (top)        1.000 (bottom)
 Mach =   0.000     Re =     0.120 e 6     Ncrit =   9.000

  alpha     CL        CD       CDp       Cm    Top Xtr Bot Xtr   Cpmin    Chinge    XCp    
 ------- -------- --------- --------- -------- ------- ------- -------- --------- ---------
  -9.700  -0.1339   0.10878   0.10426  -0.0842  0.9639  0.0920  -1.4250   0.0000   0.0000   0.0000  -0.4295
  -9.600  -0.1313   0.10758   0.10307  -0.0854  0.9616  0.0934  -1.4330   0.0000   0.0000   0.0000  -0.4517
  -9.500  -0.1358   0.10612   0.10162  -0.0896  0.9595  0.0951  -1.5129   0.0000   0.0000   0.0000  -0.4593
  -9.300  -0.1206   0.10288   0.09838  -0.0912  0.9569  0.0965  -1.4779   0.0000   0.0000   0.0000  -0.5605
  -9.200  -0.1107   0.10155   0.09703  -0.0917  0.9557  0.0975  -1.4425   0.0000   0.0000   0.0000  -0.6372
  -9.100  -0.1028   0.10017   0.09564  -0.0929  0.9546  0.0990  -1.4263   0.0000   0.0000   0.0000  -0.7176
  -9.000  -0.0980   0.09866   0.09412  -0.0953  0.9534  0.1012  -1.4385   0.0000   0.0000   0.0000  -0.7885
  -8.900  -0.1101   0.09761   0.09311  -0.0990  0.9489  0.1027  -1.5382   0.0000   0.0000   0.0000  -0.7063
  -8.600  -0.0800   0.09365   0.08911  -0.0992  0.9455  0.1066  -1.4185   0.0000   0.0000   0.0000  -1.0669
  -8.500  -0.0784   0.09242   0.08789  -0.1011  0.9432  0.1090  -1.4348   0.0000   0.0000   0.0000  -1.1175
  -8.400  -0.0939   0.09146   0.08696  -0.1046  0.9381  0.1104  -1.5417   0.0000   0.0000   0.0000  -0.9280
  -8.000  -0.0611   0.08664   0.08212  -0.1052  0.9323  0.1161  -1.4186   0.0000   0.0000   0.0000  -1.5682
  -7.900  -0.0768   0.08584   0.08136  -0.1079  0.9271  0.1182  -1.5091   0.0000   0.0000   0.0000  -1.2294
  -7.700  -0.0630   0.08321   0.07872  -0.1083  0.9240  0.1199  -1.4629   0.0000   0.0000   0.0000  -1.5553
  -7.600  -0.0519   0.08205   0.07755  -0.1085  0.9232  0.1214  -1.4275   0.0000   0.0000   0.0000  -1.9478
  -7.500  -0.0527   0.08152   0.07703  -0.1079  0.9199  0.1226  -1.4249   0.0000   0.0000   0.0000  -1.9008
  -7.400  -0.0546   0.08061   0.07613  -0.1088  0.9169  0.1248  -1.4422   0.0000   0.0000   0.0000  -1.8396
  -7.300  -0.0749   0.08023   0.07579  -0.1102  0.9106  0.1263  -1.5229   0.0000   0.0000   0.0000  -1.2891
  -6.800  -0.0595   0.07551   0.07108  -0.1106  0.8996  0.1332  -1.4792   0.0000   0.0000   0.0000  -1.6904
  -5.700  -0.0962   0.04646   0.04050  -0.1318  0.8632  0.0881  -2.3425   0.0000   0.0000   0.0000  -1.1673
  -5.600  -0.0812   0.04520   0.03923  -0.1331  0.8625  0.0874  -2.3011   0.0000   0.0000   0.0000  -1.4444
  -5.400  -0.0799   0.04069   0.03380  -0.1327  0.8564  0.0815  -2.4566   0.0000   0.0000   0.0000  -1.4664
  -5.300  -0.0651   0.03936   0.03228  -0.1339  0.8554  0.0813  -2.4324   0.0000   0.0000   0.0000  -1.8755
  -5.200  -0.0490   0.03813   0.03088  -0.1353  0.8546  0.0818  -2.3975   0.0000   0.0000   0.0000  -2.6009
  -5.100  -0.0327   0.03773   0.03061  -0.1364  0.8540  0.0834  -2.3210   0.0000   0.0000   0.0000  -4.0546
  -4.900  -0.0293   0.03732   0.03008  -0.1340  0.8479  0.0847  -2.2885   0.0000   0.0000   0.0000  -4.4697
  -4.800  -0.0134   0.03637   0.02889  -0.1351  0.8469  0.0859  -2.2621   0.0000   0.0000   0.0000  -10.1707
  -4.700   0.0041   0.03530   0.02754  -0.1365  0.8462  0.0868  -2.2396   0.0000   0.0000   0.0000  34.5945
  -4.600   0.0225   0.03428   0.02620  -0.1379  0.8455  0.0878  -2.2152   0.0000   0.0000   0.0000   6.5642
  -4.400   0.0284   0.03389   0.02565  -0.1357  0.8396  0.0889  -2.1800   0.0000   0.0000   0.0000   5.1629
  -4.300   0.0430   0.03351   0.02534  -0.1365  0.8385  0.0906  -2.1196   0.0000   0.0000   0.0000   3.5095
  -4.200   0.0597   0.03304   0.02477  -0.1375  0.8377  0.0931  -2.0678   0.0000   0.0000   0.0000   2.6139
  -4.100   0.0781   0.03241   0.02386  -0.1387  0.8370  0.0956  -2.0281   0.0000   0.0000   0.0000   2.0730
  -4.000   0.0951   0.03191   0.02343  -0.1398  0.8364  0.0978  -1.9648   0.0000   0.0000   0.0000   1.7571
  -3.900   0.0843   0.03239   0.02391  -0.1365  0.8310  0.0978  -1.9687   0.0000   0.0000   0.0000   1.9114
  -3.800   0.0994   0.03200   0.02346  -0.1372  0.8299  0.1000  -1.9267   0.0000   0.0000   0.0000   1.6646
  -3.700   0.1166   0.03154   0.02279  -0.1382  0.8290  0.1030  -1.8899   0.0000   0.0000   0.0000   1.4640
  -3.600   0.1332   0.03114   0.02250  -0.1392  0.8283  0.1061  -1.8312   0.0000   0.0000   0.0000   1.3193
  -3.500   0.1508   0.03075   0.02197  -0.1402  0.8277  0.1101  -1.7853   0.0000   0.0000   0.0000   1.2007
  -3.400   0.1413   0.03126   0.02246  -0.1372  0.8222  0.1104  -1.7874   0.0000   0.0000   0.0000   1.2430
  -3.300   0.1556   0.03093   0.02222  -0.1378  0.8211  0.1135  -1.7365   0.0000   0.0000   0.0000   1.1549
  -3.200   0.1721   0.03061   0.02182  -0.1386  0.8201  0.1178  -1.6897   0.0000   0.0000   0.0000   1.0728
  -3.100   0.1887   0.03025   0.02152  -0.1396  0.8194  0.1224  -1.6343   0.0000   0.0000   0.0000   1.0047
  -3.000   0.2057   0.02989   0.02112  -0.1404  0.8187  0.1280  -1.5840   0.0000   0.0000   0.0000   0.9463
  -2.800   0.2116   0.03022   0.02147  -0.1382  0.8120  0.1342  -1.5344   0.0000   0.0000   0.0000   0.9158
  -2.700   0.2275   0.02991   0.02123  -0.1390  0.8111  0.1407  -1.4873   0.0000   0.0000   0.0000   0.8723
  -2.600   0.2441   0.02959   0.02095  -0.1399  0.8103  0.1487  -1.4402   0.0000   0.0000   0.0000   0.8332
  -2.500   0.2607   0.02925   0.02065  -0.1407  0.8096  0.1579  -1.3928   0.0000   0.0000   0.0000   0.7988
  -2.300   0.2677   0.02965   0.02109  -0.1388  0.8028  0.1705  -1.3462   0.0000   0.0000   0.0000   0.7768
  -2.200   0.2837   0.02935   0.02086  -0.1396  0.8019  0.1841  -1.2994   0.0000   0.0000   0.0000   0.7495
  -2.100   0.3001   0.02903   0.02063  -0.1404  0.8011  0.2015  -1.2511   0.0000   0.0000   0.0000   0.7247
  -2.000   0.3167   0.02867   0.02038  -0.1413  0.8004  0.2232  -1.2021   0.0000   0.0000   0.0000   0.7022
  -1.900   0.3100   0.02932   0.02108  -0.1390  0.7947  0.2276  -1.1970   0.0000   0.0000   0.0000   0.7045
  -1.800   0.3246   0.02907   0.02097  -0.1397  0.7935  0.2543  -1.1511   0.0000   0.0000   0.0000   0.6857
  -1.700   0.3404   0.02876   0.02081  -0.1405  0.7925  0.2873  -1.1021   0.0000   0.0000   0.0000   0.6676
  -1.600   0.3564   0.02842   0.02065  -0.1412  0.7917  0.3268  -1.0545   0.0000   0.0000   0.0000   0.6507
  -1.500   0.3724   0.02808   0.02049  -0.1419  0.7911  0.3707  -1.0076   0.0000   0.0000   0.0000   0.6351
  -1.200   0.3946   0.02831   0.02117  -0.1407  0.7830  0.4816  -0.9136   0.0000   0.0000   0.0000   0.6095
  -1.100   0.4091   0.02803   0.02108  -0.1409  0.7822  0.5353  -0.8687   0.0000   0.0000   0.0000   0.5971
  -1.000   0.4230   0.02775   0.02098  -0.1409  0.7815  0.5886  -0.8249   0.0000   0.0000   0.0000   0.5855
  -0.800   0.4278   0.02838   0.02185  -0.1383  0.7741  0.6578  -0.7803   0.0000   0.0000   0.0000   0.5753
  -0.700   0.4395   0.02818   0.02177  -0.1378  0.7731  0.7064  -0.7590   0.0000   0.0000   0.0000   0.5651
  -0.600   0.4507   0.02794   0.02163  -0.1370  0.7723  0.7519  -0.7679   0.0000   0.0000   0.0000   0.5554
  -0.400   0.4511   0.02857   0.02242  -0.1333  0.7649  0.8176  -0.7687   0.0000   0.0000   0.0000   0.5465
  -0.300   0.4585   0.02832   0.02225  -0.1317  0.7638  0.8680  -0.7756   0.0000   0.0000   0.0000   0.5380
  -0.200   0.4741   0.02793   0.02191  -0.1317  0.7629  1.0000  -0.7871   0.0000   0.0000   0.0000   0.5282
  -0.100   0.4918   0.02780   0.02166  -0.1327  0.7623  1.0000  -0.7996   0.0000   0.0000   0.0000   0.5199
   0.100   0.5018   0.02870   0.02245  -0.1318  0.7545  1.0000  -0.8055   0.0000   0.0000   0.0000   0.5124
   0.200   0.5185   0.02857   0.02224  -0.1325  0.7536  1.0000  -0.8177   0.0000   0.0000   0.0000   0.5052
   0.300   0.5353   0.02842   0.02201  -0.1332  0.7529  1.0000  -0.8303   0.0000   0.0000   0.0000   0.4983
   0.400   0.5519   0.02827   0.02179  -0.1339  0.7522  1.0000  -0.8429   0.0000   0.0000   0.0000   0.4918
   0.600   0.5610   0.02919   0.02263  -0.1328  0.7442  1.0000  -0.8492   0.0000   0.0000   0.0000   0.4854
   0.700   0.5773   0.02903   0.02240  -0.1333  0.7435  1.0000  -0.8619   0.0000   0.0000   0.0000   0.4795
   0.800   0.5939   0.02884   0.02215  -0.1339  0.7428  1.0000  -0.8750   0.0000   0.0000   0.0000   0.4739
   1.000   0.6028   0.02978   0.02304  -0.1327  0.7348  1.0000  -0.8816   0.0000   0.0000   0.0000   0.4682
   1.100   0.6187   0.02961   0.02281  -0.1332  0.7340  1.0000  -0.8945   0.0000   0.0000   0.0000   0.4631
   1.200   0.6351   0.02941   0.02255  -0.1337  0.7333  1.0000  -0.9078   0.0000   0.0000   0.0000   0.4582
   1.300   0.6516   0.02918   0.02228  -0.1343  0.7327  1.0000  -0.9214   0.0000   0.0000   0.0000   0.4535
   1.500   0.6598   0.03017   0.02322  -0.1329  0.7244  1.0000  -0.9286   0.0000   0.0000   0.0000   0.4486
   1.600   0.6759   0.02995   0.02296  -0.1334  0.7237  1.0000  -0.9421   0.0000   0.0000   0.0000   0.4443
   1.700   0.6924   0.02970   0.02267  -0.1339  0.7231  1.0000  -0.9561   0.0000   0.0000   0.0000   0.4402
   1.800   0.7085   0.02948   0.02240  -0.1343  0.7224  1.0000  -0.9700   0.0000   0.0000   0.0000   0.4363
   2.000   0.7168   0.03044   0.02334  -0.1330  0.7140  1.0000  -0.9784   0.0000   0.0000   0.0000   0.4319
   2.100   0.7331   0.03018   0.02304  -0.1334  0.7134  1.0000  -0.9929   0.0000   0.0000   0.0000   0.4282
   2.200   0.7497   0.02989   0.02272  -0.1339  0.7129  1.0000  -1.0080   0.0000   0.0000   0.0000   0.4246
   2.500   0.7741   0.03058   0.02336  -0.1329  0.7037  1.0000  -1.0319   0.0000   0.0000   0.0000   0.4172
   2.600   0.7907   0.03026   0.02301  -0.1333  0.7032  1.0000  -1.0476   0.0000   0.0000   0.0000   0.4141
   2.700   0.8074   0.02993   0.02266  -0.1338  0.7026  1.0000  -1.0633   0.0000   0.0000   0.0000   0.4110
   3.000   0.8320   0.03054   0.02324  -0.1327  0.6934  1.0000  -1.0896   0.0000   0.0000   0.0000   0.4044
   3.100   0.8487   0.03019   0.02287  -0.1331  0.6928  1.0000  -1.1059   0.0000   0.0000   0.0000   0.4016
   3.200   0.8656   0.02982   0.02247  -0.1336  0.6923  1.0000  -1.1228   0.0000   0.0000   0.0000   0.3989
   3.600   0.8847   0.03150   0.02417  -0.1308  0.6760  1.0000  -1.1483   0.0000   0.0000   0.0000   0.3919
   3.700   0.9000   0.03121   0.02386  -0.1311  0.6749  1.0000  -1.1646   0.0000   0.0000   0.0000   0.3895
   3.800   0.9159   0.03085   0.02349  -0.1314  0.6740  1.0000  -1.1817   0.0000   0.0000   0.0000   0.3872
   3.900   0.9326   0.03046   0.02308  -0.1318  0.6733  1.0000  -1.1997   0.0000   0.0000   0.0000   0.3849
   4.000   0.9498   0.03003   0.02264  -0.1323  0.6727  1.0000  -1.2187   0.0000   0.0000   0.0000   0.3827
   4.100   0.9672   0.02958   0.02219  -0.1328  0.6722  1.0000  -1.2381   0.0000   0.0000   0.0000   0.3805
   4.200   0.9850   0.02912   0.02171  -0.1333  0.6717  1.0000  -1.2583   0.0000   0.0000   0.0000   0.3785
   4.400   0.9931   0.02995   0.02256  -0.1316  0.6630  1.0000  -1.2734   0.0000   0.0000   0.0000   0.3754
   4.500   1.0108   0.02947   0.02207  -0.1321  0.6624  1.0000  -1.2944   0.0000   0.0000   0.0000   0.3735
   4.600   1.0289   0.02897   0.02157  -0.1327  0.6618  1.0000  -1.3161   0.0000   0.0000   0.0000   0.3716
   4.700   1.0469   0.02848   0.02107  -0.1333  0.6613  1.0000  -1.3384   0.0000   0.0000   0.0000   0.3698
   4.900   1.0557   0.02921   0.02184  -0.1316  0.6526  1.0000  -1.3569   0.0000   0.0000   0.0000   0.3668
   5.000   1.0738   0.02869   0.02132  -0.1322  0.6519  1.0000  -1.3806   0.0000   0.0000   0.0000   0.3651
   5.100   1.0922   0.02818   0.02079  -0.1328  0.6512  1.0000  -1.4046   0.0000   0.0000   0.0000   0.3635
   5.300   1.1021   0.02880   0.02145  -0.1312  0.6428  1.0000  -1.4261   0.0000   0.0000   0.0000   0.3606
   5.400   1.1202   0.02828   0.02094  -0.1318  0.6419  1.0000  -1.4511   0.0000   0.0000   0.0000   0.3591
   5.500   1.1388   0.02774   0.02039  -0.1324  0.6411  1.0000  -1.4771   0.0000   0.0000   0.0000   0.3576
   5.700   1.1501   0.02825   0.02094  -0.1309  0.6329  1.0000  -1.5033   0.0000   0.0000   0.0000   0.3548
   5.800   1.1683   0.02772   0.02041  -0.1315  0.6318  1.0000  -1.5314   0.0000   0.0000   0.0000   0.3534
   5.900   1.1874   0.02715   0.01984  -0.1322  0.6308  1.0000  -1.5611   0.0000   0.0000   0.0000   0.3521
   6.200   1.2185   0.02700   0.01973  -0.1315  0.6213  1.0000  -1.6226   0.0000   0.0000   0.0000   0.3482
   6.300   1.2382   0.02641   0.01913  -0.1323  0.6201  1.0000  -1.6552   0.0000   0.0000   0.0000   0.3470
   6.600   1.2707   0.02614   0.01890  -0.1317  0.6102  1.0000  -1.7242   0.0000   0.0000   0.0000   0.3433
   6.800   1.2863   0.02628   0.01910  -0.1305  0.6022  1.0000  -1.7675   0.0000   0.0000   0.0000   0.3408
   6.900   1.3047   0.02577   0.01858  -0.1312  0.6001  1.0000  -1.8064   0.0000   0.0000   0.0000   0.3398
   7.000   1.3253   0.02518   0.01796  -0.1322  0.5984  1.0000  -1.8500   0.0000   0.0000   0.0000   0.3388
   7.100   1.3220   0.02582   0.01867  -0.1303  0.5920  1.0000  -1.8584   0.0000   0.0000   0.0000   0.3374
   7.200   1.3396   0.02537   0.01821  -0.1309  0.5895  1.0000  -1.8998   0.0000   0.0000   0.0000   0.3364
   7.300   1.3513   0.02524   0.01809  -0.1308  0.5859  1.0000  -1.9338   0.0000   0.0000   0.0000   0.3353
   7.400   1.3571   0.02539   0.01828  -0.1299  0.5811  1.0000  -1.9585   0.0000   0.0000   0.0000   0.3341
   7.500   1.3752   0.02494   0.01781  -0.1306  0.5783  1.0000  -2.0039   0.0000   0.0000   0.0000   0.3332
   7.600   1.3801   0.02515   0.01806  -0.1297  0.5734  1.0000  -2.0283   0.0000   0.0000   0.0000   0.3320
   7.700   1.3919   0.02500   0.01791  -0.1296  0.5693  1.0000  -2.0649   0.0000   0.0000   0.0000   0.3310
   7.800   1.4116   0.02451   0.01738  -0.1305  0.5665  1.0000  -2.1166   0.0000   0.0000   0.0000   0.3302
   7.900   1.4109   0.02496   0.01790  -0.1288  0.5605  1.0000  -2.1325   0.0000   0.0000   0.0000   0.3289
   8.000   1.4275   0.02461   0.01752  -0.1293  0.5569  1.0000  -2.1799   0.0000   0.0000   0.0000   0.3280
   8.100   1.4318   0.02484   0.01780  -0.1283  0.5515  1.0000  -2.2050   0.0000   0.0000   0.0000   0.3268
   8.200   1.4444   0.02467   0.01762  -0.1283  0.5471  1.0000  -2.2471   0.0000   0.0000   0.0000   0.3259
   8.300   1.4529   0.02470   0.01766  -0.1278  0.5422  1.0000  -2.2818   0.0000   0.0000   0.0000   0.3249
   8.400   1.4616   0.02471   0.01768  -0.1273  0.5371  1.0000  -2.3173   0.0000   0.0000   0.0000   0.3238
   8.500   1.4726   0.02465   0.01761  -0.1271  0.5324  1.0000  -2.3573   0.0000   0.0000   0.0000   0.3229
   8.600   1.4787   0.02478   0.01776  -0.1263  0.5268  1.0000  -2.3894   0.0000   0.0000   0.0000   0.3218
   8.700   1.4903   0.02469   0.01766  -0.1262  0.5219  1.0000  -2.4330   0.0000   0.0000   0.0000   0.3209
   8.800   1.4951   0.02487   0.01787  -0.1252  0.5162  1.0000  -2.4629   0.0000   0.0000   0.0000   0.3198
   8.900   1.5059   0.02483   0.01782  -0.1250  0.5110  1.0000  -2.5053   0.0000   0.0000   0.0000   0.3189
   9.000   1.5107   0.02502   0.01803  -0.1240  0.5052  1.0000  -2.5414   0.0000   0.0000   0.0000   0.3178
   9.100   1.5196   0.02506   0.01806  -0.1235  0.4997  1.0000  -2.5887   0.0000   0.0000   0.0000   0.3168
   9.200   1.5256   0.02520   0.01821  -0.1227  0.4938  1.0000  -2.6292   0.0000   0.0000   0.0000   0.3158
   9.300   1.5318   0.02534   0.01835  -0.1219  0.4881  1.0000  -2.6704   0.0000   0.0000   0.0000   0.3147
   9.400   1.5397   0.02541   0.01841  -0.1213  0.4821  1.0000  -2.7179   0.0000   0.0000   0.0000   0.3138
   9.500   1.5421   0.02566   0.01868  -0.1199  0.4762  1.0000  -2.7518   0.0000   0.0000   0.0000   0.3126
   9.600   1.5523   0.02566   0.01863  -0.1196  0.4702  1.0000  -2.8069   0.0000   0.0000   0.0000   0.3117
   9.700   1.5514   0.02603   0.01905  -0.1179  0.4640  1.0000  -2.8325   0.0000   0.0000   0.0000   0.3105
   9.800   1.5600   0.02609   0.01908  -0.1174  0.4580  1.0000  -2.8837   0.0000   0.0000   0.0000   0.3095
   9.900   1.5606   0.02644   0.01945  -0.1159  0.4516  1.0000  -2.9133   0.0000   0.0000   0.0000   0.3084
  10.000   1.5652   0.02666   0.01966  -0.1149  0.4455  1.0000  -2.9541   0.0000   0.0000   0.0000   0.3073
  10.100   1.5697   0.02689   0.01988  -0.1139  0.4391  1.0000  -2.9947   0.0000   0.0000   0.0000   0.3063
  10.200   1.5707   0.02727   0.02027  -0.1126  0.4327  1.0000  -3.0259   0.0000   0.0000   0.0000   0.3052
  10.300   1.5778   0.02742   0.02037  -0.1119  0.4265  1.0000  -3.0743   0.0000   0.0000   0.0000   0.3043
  10.400   1.5766   0.02790   0.02090  -0.1103  0.4200  1.0000  -3.0992   0.0000   0.0000   0.0000   0.3032
  10.500   1.5803   0.02821   0.02118  -0.1094  0.4138  1.0000  -3.1382   0.0000   0.0000   0.0000   0.3022
  10.600   1.5827   0.02857   0.02154  -0.1082  0.4073  1.0000  -3.1736   0.0000   0.0000   0.0000   0.3012
  10.700   1.5834   0.02903   0.02202  -0.1070  0.4009  1.0000  -3.2042   0.0000   0.0000   0.0000   0.3002
  10.800   1.5884   0.02931   0.02224  -0.1062  0.3946  1.0000  -3.2494   0.0000   0.0000   0.0000   0.2993
  10.900   1.5869   0.02989   0.02287  -0.1047  0.3880  1.0000  -3.2753   0.0000   0.0000   0.0000   0.2982
  11.000   1.5891   0.03031   0.02328  -0.1037  0.3817  1.0000  -3.3127   0.0000   0.0000   0.0000   0.2973
  11.100   1.5909   0.03077   0.02372  -0.1026  0.3753  1.0000  -3.3487   0.0000   0.0000   0.0000   0.2964
  11.200   1.5906   0.03135   0.02432  -0.1014  0.3687  1.0000  -3.3784   0.0000   0.0000   0.0000   0.2954
  11.300   1.5934   0.03177   0.02470  -0.1004  0.3625  1.0000  -3.4181   0.0000   0.0000   0.0000   0.2945
  11.400   1.5926   0.03241   0.02536  -0.0992  0.3559  1.0000  -3.4461   0.0000   0.0000   0.0000   0.2936
  11.500   1.5932   0.03298   0.02592  -0.0981  0.3495  1.0000  -3.4788   0.0000   0.0000   0.0000   0.2927
  11.600   1.5951   0.03348   0.02639  -0.0972  0.3432  1.0000  -3.5159   0.0000   0.0000   0.0000   0.2918
  11.700   1.5936   0.03421   0.02715  -0.0960  0.3366  1.0000  -3.5416   0.0000   0.0000   0.0000   0.2909
  11.800   1.5945   0.03480   0.02771  -0.0950  0.3304  1.0000  -3.5756   0.0000   0.0000   0.0000   0.2900
  11.900   1.5943   0.03547   0.02838  -0.0939  0.3240  1.0000  -3.6059   0.0000   0.0000   0.0000   0.2892
  12.000   1.5935   0.03620   0.02912  -0.0929  0.3175  1.0000  -3.6342   0.0000   0.0000   0.0000   0.2884
  12.100   1.5946   0.03681   0.02968  -0.0919  0.3114  1.0000  -3.6687   0.0000   0.0000   0.0000   0.2875
  12.200   1.5930   0.03762   0.03053  -0.0909  0.3049  1.0000  -3.6942   0.0000   0.0000   0.0000   0.2867
  12.300   1.5925   0.03837   0.03126  -0.0899  0.2987  1.0000  -3.7237   0.0000   0.0000   0.0000   0.2859
  12.400   1.5928   0.03906   0.03192  -0.0890  0.2927  1.0000  -3.7557   0.0000   0.0000   0.0000   0.2851
  12.500   1.5909   0.03995   0.03283  -0.0880  0.2862  1.0000  -3.7817   0.0000   0.0000   0.0000   0.2844
  12.600   1.5906   0.04072   0.03357  -0.0871  0.2803  1.0000  -3.8136   0.0000   0.0000   0.0000   0.2836
  12.700   1.5895   0.04156   0.03441  -0.0862  0.2742  1.0000  -3.8427   0.0000   0.0000   0.0000   0.2828
  12.800   1.5881   0.04245   0.03531  -0.0853  0.2680  1.0000  -3.8702   0.0000   0.0000   0.0000   0.2821
  12.900   1.5879   0.04323   0.03603  -0.0844  0.2624  1.0000  -3.9029   0.0000   0.0000   0.0000   0.2814
  13.000   1.5857   0.04421   0.03705  -0.0836  0.2562  1.0000  -3.9276   0.0000   0.0000   0.0000   0.2807
  13.100   1.5846   0.04511   0.03793  -0.0827  0.2505  1.0000  -3.9564   0.0000   0.0000   0.0000   0.2800
  13.200   1.5836   0.04600   0.03879  -0.0819  0.2449  1.0000  -3.9858   0.0000   0.0000   0.0000   0.2793
  13.300   1.5816   0.04701   0.03982  -0.0811  0.2390  1.0000  -4.0108   0.0000   0.0000   0.0000   0.2786
  13.400   1.5809   0.04790   0.04066  -0.0804  0.2337  1.0000  -4.0415   0.0000   0.0000   0.0000   0.2779
  13.500   1.5787   0.04896   0.04174  -0.0796  0.2280  1.0000  -4.0677   0.0000   0.0000   0.0000   0.2773
  13.600   1.5774   0.04996   0.04272  -0.0789  0.2226  1.0000  -4.0972   0.0000   0.0000   0.0000   0.2767
  13.700   1.5762   0.05095   0.04369  -0.0782  0.2174  1.0000  -4.1275   0.0000   0.0000   0.0000   0.2761
  13.800   1.5743   0.05205   0.04481  -0.0775  0.2119  1.0000  -4.1539   0.0000   0.0000   0.0000   0.2755
  13.900   1.5736   0.05299   0.04569  -0.0769  0.2071  1.0000  -4.1867   0.0000   0.0000   0.0000   0.2749
  14.000   1.5713   0.05417   0.04691  -0.0762  0.2017  1.0000  -4.2111   0.0000   0.0000   0.0000   0.2743
  14.100   1.5702   0.05521   0.04792  -0.0756  0.1969  1.0000  -4.2413   0.0000   0.0000   0.0000   0.2738
  14.200   1.5686   0.05633   0.04904  -0.0751  0.1920  1.0000  -4.2690   0.0000   0.0000   0.0000   0.2732
  14.300   1.5671   0.05745   0.05015  -0.0745  0.1872  1.0000  -4.2970   0.0000   0.0000   0.0000   0.2727
  14.400   1.5662   0.05851   0.05118  -0.0740  0.1827  1.0000  -4.3277   0.0000   0.0000   0.0000   0.2722
  14.500   1.5644   0.05971   0.05240  -0.0735  0.1780  1.0000  -4.3535   0.0000   0.0000   0.0000   0.2717
  14.600   1.5641   0.06070   0.05333  -0.0729  0.1738  1.0000  -4.3886   0.0000   0.0000   0.0000   0.2711
  14.700   1.5618   0.06199   0.05467  -0.0725  0.1692  1.0000  -4.4137   0.0000   0.0000   0.0000   0.2707
  14.800   1.5620   0.06294   0.05553  -0.0720  0.1654  1.0000  -4.4520   0.0000   0.0000   0.0000   0.2701
  14.900   1.5595   0.06430   0.05696  -0.0716  0.1610  1.0000  -4.4753   0.0000   0.0000   0.0000   0.2697
  15.000   1.5598   0.06524   0.05782  -0.0711  0.1573  1.0000  -4.5141   0.0000   0.0000   0.0000   0.2692
  15.100   1.5574   0.06661   0.05927  -0.0708  0.1532  1.0000  -4.5377   0.0000   0.0000   0.0000   0.2688
  15.200   1.5582   0.06752   0.06008  -0.0704  0.1497  1.0000  -4.5784   0.0000   0.0000   0.0000   0.2683
  15.300   1.5556   0.06894   0.06160  -0.0701  0.1459  1.0000  -4.6005   0.0000   0.0000   0.0000   0.2680
  15.400   1.5565   0.06986   0.06243  -0.0696  0.1425  1.0000  -4.6415   0.0000   0.0000   0.0000   0.2675
  15.500   1.5541   0.07127   0.06392  -0.0694  0.1390  1.0000  -4.6644   0.0000   0.0000   0.0000   0.2671
  15.600   1.5546   0.07226   0.06487  -0.0690  0.1358  1.0000  -4.7026   0.0000   0.0000   0.0000   0.2667
  15.700   1.5533   0.07354   0.06618  -0.0687  0.1326  1.0000  -4.7307   0.0000   0.0000   0.0000   0.2663
  15.800   1.5528   0.07468   0.06733  -0.0684  0.1295  1.0000  -4.7637   0.0000   0.0000   0.0000   0.2659
  15.900   1.5533   0.07571   0.06832  -0.0681  0.1266  1.0000  -4.8011   0.0000   0.0000   0.0000   0.2654
  16.000   1.5516   0.07707   0.06974  -0.0679  0.1237  1.0000  -4.8268   0.0000   0.0000   0.0000   0.2651
  16.100   1.5542   0.07777   0.07034  -0.0676  0.1209  1.0000  -4.8779   0.0000   0.0000   0.0000   0.2646
  16.200   1.5515   0.07932   0.07200  -0.0674  0.1183  1.0000  -4.8990   0.0000   0.0000   0.0000   0.2644
  16.300   1.5517   0.08041   0.07309  -0.0672  0.1156  1.0000  -4.9374   0.0000   0.0000   0.0000   0.2640
  16.400   1.5531   0.08132   0.07396  -0.0669  0.1131  1.0000  -4.9820   0.0000   0.0000   0.0000   0.2635
  16.500   1.5511   0.08278   0.07550  -0.0668  0.1107  1.0000  -5.0068   0.0000   0.0000   0.0000   0.2633
  16.600   1.5531   0.08362   0.07629  -0.0665  0.1083  1.0000  -5.0548   0.0000   0.0000   0.0000   0.2628
  16.700   1.5531   0.08477   0.07748  -0.0663  0.1060  1.0000  -5.0902   0.0000   0.0000   0.0000   0.2625
  16.800   1.5517   0.08614   0.07891  -0.0662  0.1039  1.0000  -5.1183   0.0000   0.0000   0.0000   0.2622
  16.900   1.5552   0.08676   0.07945  -0.0659  0.1016  1.0000  -5.1743   0.0000   0.0000   0.0000   0.2617
  17.000   1.5542   0.08809   0.08084  -0.0658  0.0996  1.0000  -5.2034   0.0000   0.0000   0.0000   0.2614
  17.100   1.5528   0.08947   0.08229  -0.0658  0.0976  1.0000  -5.2310   0.0000   0.0000   0.0000   0.2612
  17.200   1.5563   0.09009   0.08284  -0.0655  0.0955  1.0000  -5.2872   0.0000   0.0000   0.0000   0.2607
  17.300   1.5563   0.09128   0.08407  -0.0654  0.0937  1.0000  -5.3214   0.0000   0.0000   0.0000   0.2604
  17.400   1.5545   0.09276   0.08564  -0.0654  0.0919  1.0000  -5.3452   0.0000   0.0000   0.0000   0.2602
  17.500   1.5566   0.09361   0.08646  -0.0652  0.0901  1.0000  -5.3928   0.0000   0.0000   0.0000   0.2598
  17.600   1.5606   0.09418   0.08699  -0.0649  0.0882  1.0000  -5.4495   0.0000   0.0000   0.0000   0.2592
  17.700   1.5573   0.09592   0.08885  -0.0650  0.0867  1.0000  -5.4634   0.0000   0.0000   0.0000   0.2592
  17.800   1.5573   0.09712   0.09009  -0.0650  0.0851  1.0000  -5.4981   0.0000   0.0000   0.0000   0.2589
  17.900   1.5666   0.09688   0.08968  -0.0644  0.0831  1.0000  -5.5864   0.0000   0.0000   0.0000   0.2581
  18.000   1.5618   0.09884   0.09179  -0.0647  0.0819  1.0000  -5.5911   0.0000   0.0000   0.0000   0.2581
  18.100   1.5593   0.10046   0.09352  -0.0649  0.0805  1.0000  -5.6091   0.0000   0.0000   0.0000   0.2581
  18.200   1.5605   0.10147   0.09454  -0.0648  0.0790  1.0000  -5.6502   0.0000   0.0000   0.0000   0.2578
  18.300   1.5708   0.10110   0.09401  -0.0642  0.0772  1.0000  -5.7434   0.0000   0.0000   0.0000   0.2569
  18.400   1.5651   0.10321   0.09628  -0.0646  0.0763  1.0000  -5.7413   0.0000   0.0000   0.0000   0.2570
  18.500   1.5622   0.10490   0.09809  -0.0648  0.0751  1.0000  -5.7554   0.0000   0.0000   0.0000   0.2570
  18.600   1.5629   0.10602   0.09924  -0.0649  0.0739  1.0000  -5.7918   0.0000   0.0000   0.0000   0.2568
  18.700   1.5722   0.10577   0.09886  -0.0643  0.0723  1.0000  -5.8813   0.0000   0.0000   0.0000   0.2560
  18.800   1.5705   0.10730   0.10047  -0.0645  0.0713  1.0000  -5.9012   0.0000   0.0000   0.0000   0.2559
  18.900   1.5656   0.10931   0.10262  -0.0650  0.0704  1.0000  -5.9022   0.0000   0.0000   0.0000   0.2560
  19.000   1.5632   0.11096   0.10435  -0.0653  0.0694  1.0000  -5.9185   0.0000   0.0000   0.0000   0.2561
  19.100   1.5648   0.11196   0.10537  -0.0654  0.0683  1.0000  -5.9600   0.0000   0.0000   0.0000   0.2558
  19.200   1.5793   0.11090   0.10411  -0.0644  0.0666  1.0000  -6.0807   0.0000   0.0000   0.0000   0.2546
  19.300   1.5718   0.11335   0.10674  -0.0652  0.0661  1.0000  -6.0645   0.0000   0.0000   0.0000   0.2550
  19.400   1.5659   0.11556   0.10909  -0.0659  0.0654  1.0000  -6.0574   0.0000   0.0000   0.0000   0.2554
  19.500   1.5621   0.11748   0.11112  -0.0665  0.0647  1.0000  -6.0626   0.0000   0.0000   0.0000   0.2556
  19.600   1.5606   0.11902   0.11274  -0.0669  0.0639  1.0000  -6.0820   0.0000   0.0000   0.0000   0.2556
  19.700   1.5636   0.11981   0.11352  -0.0669  0.0629  1.0000  -6.1310   0.0000   0.0000   0.0000   0.2553
  19.800   1.5786   0.11863   0.11217  -0.0658  0.0615  1.0000  -6.2547   0.0000   0.0000   0.0000   0.2540
  19.900   1.5703   0.12128   0.11499  -0.0668  0.0611  1.0000  -6.2303   0.0000   0.0000   0.0000   0.2546
  20.000   1.5627   0.12383   0.11769  -0.0679  0.0607  1.0000  -6.2094   0.0000   0.0000   0.0000   0.2552


