xflr5 v6.57

 Calculated polar for: wine

 1 1 Reynolds number fixed          Mach number fixed         

 xtrf =   1.000 (top)        1.000 (bottom)
 Mach =   0.000     Re =     0.340 e 6     Ncrit =   9.000

  alpha     CL        CD       CDp       Cm    Top Xtr Bot Xtr   Cpmin    Chinge    XCp    
 ------- -------- --------- --------- -------- ------- ------- -------- --------- ---------
 -10.000  -0.1472   0.09802   0.09474  -0.0798  0.8678  0.0423  -1.7496   0.0000   0.0000   0.0000  -0.3394
  -9.900  -0.1432   0.09707   0.09378  -0.0800  0.8659  0.0426  -1.7256   0.0000   0.0000   0.0000  -0.3570
  -9.800  -0.1397   0.09605   0.09276  -0.0804  0.8642  0.0430  -1.7122   0.0000   0.0000   0.0000  -0.3737
  -9.700  -0.1368   0.09497   0.09166  -0.0808  0.8627  0.0434  -1.7055   0.0000   0.0000   0.0000  -0.3892
  -9.600  -0.1343   0.09378   0.09046  -0.0814  0.8610  0.0439  -1.7056   0.0000   0.0000   0.0000  -0.4053
  -9.500  -0.1323   0.09243   0.08912  -0.0822  0.8590  0.0445  -1.7163   0.0000   0.0000   0.0000  -0.4209
  -9.400  -0.1570   0.08576   0.08248  -0.0907  0.8563  0.0463  -2.1227   0.0000   0.0000   0.0000  -0.3698
  -9.300  -0.1510   0.08521   0.08191  -0.0898  0.8549  0.0465  -2.0604   0.0000   0.0000   0.0000  -0.3884
  -9.200  -0.1452   0.08465   0.08134  -0.0892  0.8537  0.0466  -2.0051   0.0000   0.0000   0.0000  -0.4089
  -9.100  -0.1392   0.08405   0.08074  -0.0889  0.8519  0.0467  -1.9550   0.0000   0.0000   0.0000  -0.4341
  -9.000  -0.1338   0.08339   0.08007  -0.0887  0.8502  0.0469  -1.9122   0.0000   0.0000   0.0000  -0.4602
  -8.900  -0.1289   0.08265   0.07933  -0.0887  0.8485  0.0472  -1.8770   0.0000   0.0000   0.0000  -0.4864
  -8.800  -0.1246   0.08182   0.07849  -0.0889  0.8470  0.0475  -1.8496   0.0000   0.0000   0.0000  -0.5125
  -8.700  -0.1207   0.08091   0.07756  -0.0891  0.8456  0.0478  -1.8288   0.0000   0.0000   0.0000  -0.5382
  -8.600  -0.1172   0.07989   0.07654  -0.0897  0.8439  0.0484  -1.8145   0.0000   0.0000   0.0000  -0.5661
  -8.500  -0.1144   0.07867   0.07533  -0.0905  0.8420  0.0491  -1.8125   0.0000   0.0000   0.0000  -0.5926
  -8.400  -0.1146   0.07678   0.07345  -0.0923  0.8400  0.0502  -1.8532   0.0000   0.0000   0.0000  -0.6056
  -8.200  -0.2207   0.03342   0.02901  -0.1384  0.8317  0.0357  -3.8633   0.0000   0.0000   0.0000  -0.4068
  -8.100  -0.2177   0.03080   0.02609  -0.1398  0.8301  0.0356  -3.9218   0.0000   0.0000   0.0000  -0.4218
  -8.000  -0.2124   0.02882   0.02382  -0.1406  0.8287  0.0356  -3.9576   0.0000   0.0000   0.0000  -0.4425
  -7.900  -0.2056   0.02721   0.02194  -0.1412  0.8276  0.0357  -3.9729   0.0000   0.0000   0.0000  -0.4679
  -7.800  -0.1980   0.02589   0.02040  -0.1416  0.8258  0.0359  -3.9735   0.0000   0.0000   0.0000  -0.4972
  -7.700  -0.1897   0.02478   0.01906  -0.1419  0.8240  0.0362  -3.9634   0.0000   0.0000   0.0000  -0.5312
  -7.600  -0.1807   0.02386   0.01791  -0.1421  0.8225  0.0365  -3.9442   0.0000   0.0000   0.0000  -0.5709
  -7.500  -0.1714   0.02308   0.01691  -0.1423  0.8212  0.0369  -3.9130   0.0000   0.0000   0.0000  -0.6161
  -7.400  -0.1616   0.02247   0.01629  -0.1424  0.8200  0.0373  -3.8488   0.0000   0.0000   0.0000  -0.6687
  -7.300  -0.1512   0.02215   0.01598  -0.1425  0.8190  0.0377  -3.7745   0.0000   0.0000   0.0000  -0.7319
  -7.200  -0.1407   0.02194   0.01578  -0.1426  0.8176  0.0381  -3.6988   0.0000   0.0000   0.0000  -0.8051
  -7.100  -0.1303   0.02166   0.01549  -0.1426  0.8159  0.0386  -3.6310   0.0000   0.0000   0.0000  -0.8884
  -7.000  -0.1200   0.02129   0.01506  -0.1427  0.8143  0.0390  -3.5709   0.0000   0.0000   0.0000  -0.9864
  -6.900  -0.1096   0.02084   0.01452  -0.1428  0.8130  0.0395  -3.5170   0.0000   0.0000   0.0000  -1.1035
  -6.800  -0.0991   0.02036   0.01392  -0.1428  0.8117  0.0399  -3.4667   0.0000   0.0000   0.0000  -1.2463
  -6.700  -0.0885   0.01988   0.01331  -0.1429  0.8107  0.0404  -3.4171   0.0000   0.0000   0.0000  -1.4254
  -6.600  -0.0777   0.01945   0.01273  -0.1429  0.8097  0.0408  -3.3668   0.0000   0.0000   0.0000  -1.6575
  -6.500  -0.0671   0.01911   0.01226  -0.1429  0.8081  0.0413  -3.3157   0.0000   0.0000   0.0000  -1.9592
  -6.400  -0.0568   0.01862   0.01173  -0.1430  0.8064  0.0417  -3.2608   0.0000   0.0000   0.0000  -2.3565
  -6.300  -0.0463   0.01826   0.01139  -0.1430  0.8050  0.0422  -3.1951   0.0000   0.0000   0.0000  -2.9462
  -6.200  -0.0355   0.01801   0.01115  -0.1430  0.8036  0.0427  -3.1281   0.0000   0.0000   0.0000  -3.9187
  -6.100  -0.0245   0.01780   0.01091  -0.1431  0.8024  0.0433  -3.0659   0.0000   0.0000   0.0000  -5.7874
  -6.000  -0.0134   0.01760   0.01067  -0.1431  0.8014  0.0441  -3.0054   0.0000   0.0000   0.0000  -10.7807
  -5.900  -0.0022   0.01737   0.01038  -0.1432  0.8004  0.0449  -2.9488   0.0000   0.0000   0.0000  -66.4955
  -5.800   0.0087   0.01716   0.01009  -0.1432  0.7989  0.0457  -2.8969   0.0000   0.0000   0.0000  17.3130
  -5.700   0.0196   0.01697   0.00981  -0.1432  0.7972  0.0463  -2.8461   0.0000   0.0000   0.0000   7.7752
  -5.600   0.0300   0.01657   0.00946  -0.1432  0.7958  0.0470  -2.7900   0.0000   0.0000   0.0000   5.1641
  -5.500   0.0409   0.01635   0.00925  -0.1432  0.7944  0.0477  -2.7294   0.0000   0.0000   0.0000   3.8539
  -5.400   0.0521   0.01615   0.00904  -0.1433  0.7932  0.0484  -2.6699   0.0000   0.0000   0.0000   3.0837
  -5.300   0.0633   0.01596   0.00881  -0.1433  0.7922  0.0493  -2.6123   0.0000   0.0000   0.0000   2.5797
  -5.200   0.0746   0.01577   0.00856  -0.1433  0.7912  0.0502  -2.5563   0.0000   0.0000   0.0000   2.2251
  -5.100   0.0857   0.01561   0.00835  -0.1433  0.7898  0.0511  -2.5029   0.0000   0.0000   0.0000   1.9689
  -5.000   0.0962   0.01535   0.00811  -0.1433  0.7881  0.0520  -2.4490   0.0000   0.0000   0.0000   1.7800
  -4.900   0.1070   0.01517   0.00796  -0.1433  0.7865  0.0530  -2.3887   0.0000   0.0000   0.0000   1.6249
  -4.800   0.1182   0.01503   0.00783  -0.1434  0.7852  0.0543  -2.3288   0.0000   0.0000   0.0000   1.4950
  -4.700   0.1295   0.01490   0.00765  -0.1434  0.7839  0.0556  -2.2759   0.0000   0.0000   0.0000   1.3856
  -4.600   0.1410   0.01478   0.00746  -0.1434  0.7828  0.0569  -2.2266   0.0000   0.0000   0.0000   1.2923
  -4.500   0.1520   0.01452   0.00723  -0.1435  0.7819  0.0582  -2.1743   0.0000   0.0000   0.0000   1.2168
  -4.400   0.1631   0.01438   0.00712  -0.1435  0.7806  0.0595  -2.1215   0.0000   0.0000   0.0000   1.1510
  -4.300   0.1739   0.01427   0.00700  -0.1435  0.7788  0.0610  -2.0719   0.0000   0.0000   0.0000   1.0944
  -4.200   0.1851   0.01417   0.00685  -0.1435  0.7772  0.0626  -2.0234   0.0000   0.0000   0.0000   1.0428
  -4.100   0.1960   0.01395   0.00669  -0.1436  0.7758  0.0642  -1.9719   0.0000   0.0000   0.0000   0.9987
  -4.000   0.2073   0.01383   0.00657  -0.1436  0.7746  0.0661  -1.9189   0.0000   0.0000   0.0000   0.9577
  -3.900   0.2189   0.01374   0.00643  -0.1437  0.7735  0.0683  -1.8681   0.0000   0.0000   0.0000   0.9201
  -3.800   0.2302   0.01356   0.00627  -0.1437  0.7724  0.0704  -1.8162   0.0000   0.0000   0.0000   0.8871
  -3.700   0.2415   0.01346   0.00616  -0.1438  0.7713  0.0728  -1.7644   0.0000   0.0000   0.0000   0.8571
  -3.600   0.2523   0.01336   0.00607  -0.1438  0.7694  0.0754  -1.7165   0.0000   0.0000   0.0000   0.8307
  -3.500   0.2633   0.01323   0.00598  -0.1438  0.7678  0.0779  -1.6658   0.0000   0.0000   0.0000   0.8064
  -3.400   0.2746   0.01315   0.00588  -0.1439  0.7663  0.0812  -1.6190   0.0000   0.0000   0.0000   0.7832
  -3.300   0.2859   0.01301   0.00576  -0.1439  0.7650  0.0845  -1.5726   0.0000   0.0000   0.0000   0.7621
  -3.200   0.2975   0.01291   0.00565  -0.1440  0.7639  0.0887  -1.5271   0.0000   0.0000   0.0000   0.7421
  -3.100   0.3091   0.01278   0.00554  -0.1441  0.7628  0.0931  -1.4806   0.0000   0.0000   0.0000   0.7238
  -3.000   0.3205   0.01267   0.00544  -0.1442  0.7617  0.0982  -1.4352   0.0000   0.0000   0.0000   0.7068
  -2.900   0.3313   0.01259   0.00539  -0.1442  0.7598  0.1041  -1.3917   0.0000   0.0000   0.0000   0.6917
  -2.800   0.3424   0.01250   0.00533  -0.1442  0.7581  0.1111  -1.3473   0.0000   0.0000   0.0000   0.6773
  -2.700   0.3536   0.01239   0.00526  -0.1443  0.7566  0.1194  -1.3025   0.0000   0.0000   0.0000   0.6636
  -2.600   0.3651   0.01227   0.00518  -0.1444  0.7553  0.1291  -1.2575   0.0000   0.0000   0.0000   0.6506
  -2.500   0.3766   0.01215   0.00510  -0.1445  0.7541  0.1410  -1.2123   0.0000   0.0000   0.0000   0.6384
  -2.400   0.3883   0.01204   0.00502  -0.1447  0.7531  0.1549  -1.1670   0.0000   0.0000   0.0000   0.6268
  -2.300   0.3998   0.01194   0.00497  -0.1448  0.7519  0.1704  -1.1222   0.0000   0.0000   0.0000   0.6161
  -2.200   0.4104   0.01187   0.00497  -0.1448  0.7498  0.1865  -1.0792   0.0000   0.0000   0.0000   0.6063
  -2.100   0.4215   0.01178   0.00494  -0.1448  0.7481  0.2040  -1.0368   0.0000   0.0000   0.0000   0.5969
  -2.000   0.4328   0.01169   0.00491  -0.1449  0.7466  0.2228  -0.9962   0.0000   0.0000   0.0000   0.5878
  -1.900   0.4443   0.01160   0.00487  -0.1450  0.7452  0.2423  -0.9555   0.0000   0.0000   0.0000   0.5791
  -1.800   0.4559   0.01150   0.00482  -0.1451  0.7440  0.2626  -0.9148   0.0000   0.0000   0.0000   0.5708
  -1.700   0.4676   0.01141   0.00477  -0.1453  0.7430  0.2842  -0.8742   0.0000   0.0000   0.0000   0.5628
  -1.600   0.4787   0.01134   0.00477  -0.1453  0.7414  0.3066  -0.8351   0.0000   0.0000   0.0000   0.5555
  -1.500   0.4894   0.01128   0.00479  -0.1454  0.7394  0.3298  -0.8252   0.0000   0.0000   0.0000   0.5486
  -1.400   0.5005   0.01120   0.00479  -0.1454  0.7377  0.3544  -0.8324   0.0000   0.0000   0.0000   0.5419
  -1.300   0.5118   0.01111   0.00478  -0.1455  0.7362  0.3805  -0.8400   0.0000   0.0000   0.0000   0.5354
  -1.200   0.5232   0.01102   0.00476  -0.1456  0.7349  0.4084  -0.8478   0.0000   0.0000   0.0000   0.5291
  -1.100   0.5348   0.01093   0.00473  -0.1456  0.7337  0.4372  -0.8558   0.0000   0.0000   0.0000   0.5231
  -1.000   0.5464   0.01084   0.00471  -0.1457  0.7327  0.4674  -0.8639   0.0000   0.0000   0.0000   0.5172
  -0.900   0.5568   0.01079   0.00476  -0.1457  0.7306  0.4966  -0.8710   0.0000   0.0000   0.0000   0.5119
  -0.800   0.5674   0.01072   0.00479  -0.1456  0.7287  0.5263  -0.8786   0.0000   0.0000   0.0000   0.5067
  -0.700   0.5784   0.01065   0.00480  -0.1456  0.7270  0.5562  -0.8864   0.0000   0.0000   0.0000   0.5016
  -0.600   0.5894   0.01058   0.00480  -0.1455  0.7255  0.5861  -0.8943   0.0000   0.0000   0.0000   0.4966
  -0.500   0.6005   0.01050   0.00480  -0.1454  0.7242  0.6156  -0.9024   0.0000   0.0000   0.0000   0.4917
  -0.400   0.6117   0.01043   0.00480  -0.1454  0.7231  0.6453  -0.9108   0.0000   0.0000   0.0000   0.4870
  -0.300   0.6221   0.01040   0.00484  -0.1452  0.7213  0.6732  -0.9185   0.0000   0.0000   0.0000   0.4825
  -0.200   0.6321   0.01037   0.00489  -0.1449  0.7192  0.6989  -0.9259   0.0000   0.0000   0.0000   0.4782
  -0.100   0.6424   0.01032   0.00491  -0.1447  0.7174  0.7235  -0.9337   0.0000   0.0000   0.0000   0.4740
   0.000   0.6529   0.01028   0.00491  -0.1444  0.7158  0.7465  -0.9417   0.0000   0.0000   0.0000   0.4698
   0.100   0.6634   0.01023   0.00490  -0.1441  0.7144  0.7687  -0.9499   0.0000   0.0000   0.0000   0.4658
   0.200   0.6739   0.01018   0.00488  -0.1439  0.7131  0.7895  -0.9582   0.0000   0.0000   0.0000   0.4618
   0.300   0.6836   0.01015   0.00490  -0.1434  0.7114  0.8096  -0.9661   0.0000   0.0000   0.0000   0.4580
   0.400   0.6926   0.01012   0.00494  -0.1429  0.7092  0.8301  -0.9734   0.0000   0.0000   0.0000   0.4544
   0.500   0.7017   0.01008   0.00494  -0.1423  0.7072  0.8512  -0.9810   0.0000   0.0000   0.0000   0.4507
   0.600   0.7106   0.01002   0.00492  -0.1417  0.7056  0.8738  -0.9888   0.0000   0.0000   0.0000   0.4471
   0.700   0.7196   0.00995   0.00488  -0.1410  0.7041  0.8997  -0.9970   0.0000   0.0000   0.0000   0.4435
   0.800   0.7311   0.00987   0.00481  -0.1408  0.7029  0.9316  -1.0066   0.0000   0.0000   0.0000   0.4400
   0.900   0.7500   0.00981   0.00476  -0.1424  0.7010  0.9962  -1.0201   0.0000   0.0000   0.0000   0.4372
   1.000   0.7612   0.00984   0.00478  -0.1425  0.6987  1.0000  -1.0294   0.0000   0.0000   0.0000   0.4343
   1.100   0.7727   0.00986   0.00478  -0.1426  0.6967  1.0000  -1.0390   0.0000   0.0000   0.0000   0.4316
   1.200   0.7845   0.00988   0.00476  -0.1428  0.6950  1.0000  -1.0489   0.0000   0.0000   0.0000   0.4288
   1.300   0.7966   0.00989   0.00473  -0.1430  0.6935  1.0000  -1.0590   0.0000   0.0000   0.0000   0.4262
   1.500   0.8193   0.00995   0.00475  -0.1431  0.6895  1.0000  -1.0787   0.0000   0.0000   0.0000   0.4211
   1.600   0.8305   0.00998   0.00477  -0.1432  0.6873  1.0000  -1.0887   0.0000   0.0000   0.0000   0.4187
   1.700   0.8420   0.00999   0.00476  -0.1432  0.6854  1.0000  -1.0990   0.0000   0.0000   0.0000   0.4163
   1.800   0.8538   0.01000   0.00473  -0.1434  0.6837  1.0000  -1.1096   0.0000   0.0000   0.0000   0.4139
   1.900   0.8660   0.01002   0.00470  -0.1436  0.6822  1.0000  -1.1205   0.0000   0.0000   0.0000   0.4116
   2.000   0.8765   0.01006   0.00475  -0.1435  0.6797  1.0000  -1.1307   0.0000   0.0000   0.0000   0.4094
   2.100   0.8874   0.01009   0.00478  -0.1435  0.6773  1.0000  -1.1412   0.0000   0.0000   0.0000   0.4073
   2.200   0.8988   0.01011   0.00478  -0.1435  0.6752  1.0000  -1.1521   0.0000   0.0000   0.0000   0.4052
   2.300   0.9105   0.01012   0.00476  -0.1437  0.6734  1.0000  -1.1636   0.0000   0.0000   0.0000   0.4031
   2.400   0.9226   0.01014   0.00474  -0.1438  0.6718  1.0000  -1.1753   0.0000   0.0000   0.0000   0.4011
   2.500   0.9329   0.01018   0.00480  -0.1437  0.6691  1.0000  -1.1860   0.0000   0.0000   0.0000   0.3991
   2.600   0.9437   0.01022   0.00483  -0.1437  0.6666  1.0000  -1.1971   0.0000   0.0000   0.0000   0.3972
   2.700   0.9551   0.01024   0.00483  -0.1437  0.6644  1.0000  -1.2089   0.0000   0.0000   0.0000   0.3953
   2.800   0.9668   0.01025   0.00482  -0.1438  0.6625  1.0000  -1.2211   0.0000   0.0000   0.0000   0.3934
   2.900   0.9783   0.01028   0.00482  -0.1439  0.6606  1.0000  -1.2332   0.0000   0.0000   0.0000   0.3916
   3.000   0.9885   0.01032   0.00488  -0.1438  0.6576  1.0000  -1.2442   0.0000   0.0000   0.0000   0.3898
   3.100   0.9995   0.01035   0.00490  -0.1437  0.6551  1.0000  -1.2563   0.0000   0.0000   0.0000   0.3881
   3.200   1.0109   0.01037   0.00490  -0.1438  0.6529  1.0000  -1.2690   0.0000   0.0000   0.0000   0.3864
   3.300   1.0227   0.01039   0.00488  -0.1439  0.6511  1.0000  -1.2821   0.0000   0.0000   0.0000   0.3847
   3.400   1.0328   0.01043   0.00495  -0.1438  0.6480  1.0000  -1.2939   0.0000   0.0000   0.0000   0.3830
   3.500   1.0435   0.01047   0.00499  -0.1437  0.6452  1.0000  -1.3064   0.0000   0.0000   0.0000   0.3814
   3.600   1.0547   0.01049   0.00499  -0.1437  0.6428  1.0000  -1.3195   0.0000   0.0000   0.0000   0.3798
   3.700   1.0664   0.01052   0.00498  -0.1438  0.6408  1.0000  -1.3333   0.0000   0.0000   0.0000   0.3783
   3.800   1.0765   0.01056   0.00505  -0.1437  0.6377  1.0000  -1.3463   0.0000   0.0000   0.0000   0.3768
   3.900   1.0871   0.01060   0.00509  -0.1436  0.6347  1.0000  -1.3600   0.0000   0.0000   0.0000   0.3752
   4.000   1.0982   0.01063   0.00510  -0.1436  0.6322  1.0000  -1.3743   0.0000   0.0000   0.0000   0.3738
   4.100   1.1097   0.01066   0.00510  -0.1436  0.6301  1.0000  -1.3895   0.0000   0.0000   0.0000   0.3723
   4.200   1.1196   0.01071   0.00518  -0.1435  0.6266  1.0000  -1.4033   0.0000   0.0000   0.0000   0.3709
   4.300   1.1302   0.01075   0.00522  -0.1434  0.6235  1.0000  -1.4182   0.0000   0.0000   0.0000   0.3695
   4.400   1.1412   0.01078   0.00523  -0.1434  0.6209  1.0000  -1.4342   0.0000   0.0000   0.0000   0.3681
   4.500   1.1520   0.01083   0.00526  -0.1433  0.6181  1.0000  -1.4501   0.0000   0.0000   0.0000   0.3667
   4.600   1.1620   0.01088   0.00533  -0.1431  0.6146  1.0000  -1.4660   0.0000   0.0000   0.0000   0.3654
   4.700   1.1727   0.01092   0.00537  -0.1431  0.6115  1.0000  -1.4825   0.0000   0.0000   0.0000   0.3641
   4.900   1.1935   0.01101   0.00546  -0.1429  0.6050  1.0000  -1.5156   0.0000   0.0000   0.0000   0.3615
   5.000   1.2039   0.01106   0.00550  -0.1427  0.6015  1.0000  -1.5327   0.0000   0.0000   0.0000   0.3602
   5.100   1.2148   0.01111   0.00552  -0.1427  0.5987  1.0000  -1.5507   0.0000   0.0000   0.0000   0.3590
   5.200   1.2245   0.01117   0.00560  -0.1425  0.5946  1.0000  -1.5683   0.0000   0.0000   0.0000   0.3577
   5.300   1.2346   0.01122   0.00566  -0.1423  0.5909  1.0000  -1.5873   0.0000   0.0000   0.0000   0.3565
   5.400   1.2454   0.01128   0.00567  -0.1422  0.5879  1.0000  -1.6074   0.0000   0.0000   0.0000   0.3553
   5.500   1.2549   0.01134   0.00578  -0.1420  0.5835  1.0000  -1.6265   0.0000   0.0000   0.0000   0.3541
   5.600   1.2649   0.01141   0.00583  -0.1418  0.5797  1.0000  -1.6466   0.0000   0.0000   0.0000   0.3529
   5.700   1.2752   0.01147   0.00588  -0.1417  0.5761  1.0000  -1.6675   0.0000   0.0000   0.0000   0.3517
   5.800   1.2847   0.01154   0.00597  -0.1414  0.5717  1.0000  -1.6874   0.0000   0.0000   0.0000   0.3506
   5.900   1.2947   0.01161   0.00602  -0.1412  0.5678  1.0000  -1.7086   0.0000   0.0000   0.0000   0.3494
   6.000   1.3043   0.01169   0.00610  -0.1410  0.5636  1.0000  -1.7297   0.0000   0.0000   0.0000   0.3483
   6.100   1.3139   0.01177   0.00618  -0.1408  0.5592  1.0000  -1.7514   0.0000   0.0000   0.0000   0.3472
   6.200   1.3238   0.01186   0.00624  -0.1406  0.5554  1.0000  -1.7737   0.0000   0.0000   0.0000   0.3461
   6.300   1.3330   0.01194   0.00635  -0.1403  0.5506  1.0000  -1.7956   0.0000   0.0000   0.0000   0.3450
   6.400   1.3425   0.01203   0.00642  -0.1400  0.5464  1.0000  -1.8210   0.0000   0.0000   0.0000   0.3439
   6.500   1.3517   0.01212   0.00652  -0.1397  0.5416  1.0000  -1.8472   0.0000   0.0000   0.0000   0.3428
   6.600   1.3608   0.01222   0.00661  -0.1394  0.5369  1.0000  -1.8739   0.0000   0.0000   0.0000   0.3417
   6.700   1.3699   0.01233   0.00670  -0.1391  0.5322  1.0000  -1.9012   0.0000   0.0000   0.0000   0.3407
   6.800   1.3787   0.01243   0.00681  -0.1387  0.5270  1.0000  -1.9299   0.0000   0.0000   0.0000   0.3396
   6.900   1.3876   0.01255   0.00690  -0.1384  0.5224  1.0000  -1.9595   0.0000   0.0000   0.0000   0.3386
   7.000   1.3962   0.01266   0.00703  -0.1380  0.5169  1.0000  -1.9888   0.0000   0.0000   0.0000   0.3375
   7.100   1.4048   0.01279   0.00713  -0.1376  0.5122  1.0000  -2.0187   0.0000   0.0000   0.0000   0.3365
   7.200   1.4132   0.01291   0.00726  -0.1372  0.5067  1.0000  -2.0492   0.0000   0.0000   0.0000   0.3354
   7.300   1.4214   0.01305   0.00737  -0.1367  0.5019  1.0000  -2.0798   0.0000   0.0000   0.0000   0.3344
   7.400   1.4296   0.01317   0.00751  -0.1363  0.4963  1.0000  -2.1111   0.0000   0.0000   0.0000   0.3334
   7.600   1.4453   0.01346   0.00779  -0.1352  0.4855  1.0000  -2.1742   0.0000   0.0000   0.0000   0.3313
   7.700   1.4528   0.01363   0.00792  -0.1347  0.4804  1.0000  -2.2053   0.0000   0.0000   0.0000   0.3303
   7.800   1.4602   0.01378   0.00809  -0.1341  0.4744  1.0000  -2.2368   0.0000   0.0000   0.0000   0.3293
   7.900   1.4672   0.01396   0.00824  -0.1335  0.4690  1.0000  -2.2688   0.0000   0.0000   0.0000   0.3282
   8.000   1.4741   0.01413   0.00841  -0.1328  0.4627  1.0000  -2.3006   0.0000   0.0000   0.0000   0.3272
   8.100   1.4805   0.01432   0.00859  -0.1321  0.4569  1.0000  -2.3318   0.0000   0.0000   0.0000   0.3261
   8.200   1.4861   0.01451   0.00876  -0.1312  0.4507  1.0000  -2.3617   0.0000   0.0000   0.0000   0.3250
   8.300   1.4915   0.01471   0.00895  -0.1303  0.4446  1.0000  -2.3919   0.0000   0.0000   0.0000   0.3240
   8.400   1.4966   0.01493   0.00915  -0.1293  0.4385  1.0000  -2.4224   0.0000   0.0000   0.0000   0.3229
   8.500   1.5020   0.01515   0.00936  -0.1285  0.4321  1.0000  -2.4536   0.0000   0.0000   0.0000   0.3218
   8.600   1.5067   0.01541   0.00959  -0.1275  0.4263  1.0000  -2.4837   0.0000   0.0000   0.0000   0.3207
   8.700   1.5119   0.01564   0.00983  -0.1266  0.4199  1.0000  -2.5147   0.0000   0.0000   0.0000   0.3197
   8.800   1.5166   0.01591   0.01008  -0.1257  0.4140  1.0000  -2.5482   0.0000   0.0000   0.0000   0.3187
   8.900   1.5212   0.01619   0.01035  -0.1248  0.4078  1.0000  -2.5852   0.0000   0.0000   0.0000   0.3176
   9.000   1.5259   0.01647   0.01062  -0.1239  0.4016  1.0000  -2.6239   0.0000   0.0000   0.0000   0.3166
   9.100   1.5298   0.01680   0.01092  -0.1229  0.3956  1.0000  -2.6615   0.0000   0.0000   0.0000   0.3156
   9.200   1.5345   0.01710   0.01122  -0.1221  0.3891  1.0000  -2.7011   0.0000   0.0000   0.0000   0.3147
   9.300   1.5382   0.01745   0.01155  -0.1211  0.3832  1.0000  -2.7386   0.0000   0.0000   0.0000   0.3137
   9.400   1.5424   0.01779   0.01188  -0.1203  0.3767  1.0000  -2.7773   0.0000   0.0000   0.0000   0.3127
   9.500   1.5464   0.01815   0.01223  -0.1194  0.3706  1.0000  -2.8156   0.0000   0.0000   0.0000   0.3118
   9.600   1.5498   0.01855   0.01261  -0.1185  0.3644  1.0000  -2.8525   0.0000   0.0000   0.0000   0.3108
   9.700   1.5539   0.01892   0.01298  -0.1176  0.3580  1.0000  -2.8915   0.0000   0.0000   0.0000   0.3099
   9.800   1.5570   0.01935   0.01339  -0.1167  0.3521  1.0000  -2.9280   0.0000   0.0000   0.0000   0.3090
   9.900   1.5607   0.01976   0.01379  -0.1159  0.3456  1.0000  -2.9663   0.0000   0.0000   0.0000   0.3081
  10.000   1.5642   0.02020   0.01422  -0.1150  0.3395  1.0000  -3.0038   0.0000   0.0000   0.0000   0.3072
  10.100   1.5669   0.02068   0.01468  -0.1141  0.3333  1.0000  -3.0398   0.0000   0.0000   0.0000   0.3063
  10.200   1.5706   0.02112   0.01511  -0.1134  0.3268  1.0000  -3.0781   0.0000   0.0000   0.0000   0.3055
  10.300   1.5732   0.02163   0.01560  -0.1125  0.3207  1.0000  -3.1140   0.0000   0.0000   0.0000   0.3046
  10.400   1.5762   0.02212   0.01609  -0.1116  0.3143  1.0000  -3.1508   0.0000   0.0000   0.0000   0.3037
  10.500   1.5792   0.02263   0.01658  -0.1108  0.3080  1.0000  -3.1880   0.0000   0.0000   0.0000   0.3029
  10.600   1.5810   0.02321   0.01713  -0.1099  0.3021  1.0000  -3.2239   0.0000   0.0000   0.0000   0.3020
  10.700   1.5842   0.02372   0.01764  -0.1092  0.2954  1.0000  -3.2638   0.0000   0.0000   0.0000   0.3012
  10.800   1.5865   0.02429   0.01820  -0.1083  0.2893  1.0000  -3.3014   0.0000   0.0000   0.0000   0.3004
  10.900   1.5884   0.02489   0.01878  -0.1075  0.2832  1.0000  -3.3377   0.0000   0.0000   0.0000   0.2996
  11.000   1.5911   0.02545   0.01934  -0.1067  0.2769  1.0000  -3.3766   0.0000   0.0000   0.0000   0.2988
  11.100   1.5928   0.02608   0.01995  -0.1059  0.2709  1.0000  -3.4126   0.0000   0.0000   0.0000   0.2980
  11.200   1.5947   0.02671   0.02056  -0.1051  0.2646  1.0000  -3.4493   0.0000   0.0000   0.0000   0.2972
  11.300   1.5968   0.02733   0.02117  -0.1043  0.2584  1.0000  -3.4867   0.0000   0.0000   0.0000   0.2965
  11.400   1.5979   0.02803   0.02184  -0.1034  0.2526  1.0000  -3.5212   0.0000   0.0000   0.0000   0.2957
  11.500   1.5999   0.02867   0.02248  -0.1027  0.2463  1.0000  -3.5584   0.0000   0.0000   0.0000   0.2949
  11.600   1.6015   0.02935   0.02314  -0.1019  0.2404  1.0000  -3.5945   0.0000   0.0000   0.0000   0.2942
  11.800   1.6039   0.03076   0.02453  -0.1003  0.2285  1.0000  -3.6647   0.0000   0.0000   0.0000   0.2927
  11.900   1.6049   0.03150   0.02525  -0.0995  0.2227  1.0000  -3.6992   0.0000   0.0000   0.0000   0.2920
  12.000   1.6054   0.03229   0.02602  -0.0987  0.2169  1.0000  -3.7321   0.0000   0.0000   0.0000   0.2913
  12.100   1.6067   0.03302   0.02674  -0.0980  0.2108  1.0000  -3.7679   0.0000   0.0000   0.0000   0.2906
  12.200   1.6074   0.03380   0.02751  -0.0972  0.2052  1.0000  -3.8014   0.0000   0.0000   0.0000   0.2898
  12.300   1.6076   0.03463   0.02832  -0.0965  0.1996  1.0000  -3.8336   0.0000   0.0000   0.0000   0.2891
  12.400   1.6087   0.03540   0.02908  -0.0958  0.1937  1.0000  -3.8708   0.0000   0.0000   0.0000   0.2885
  12.500   1.6089   0.03625   0.02991  -0.0950  0.1884  1.0000  -3.9054   0.0000   0.0000   0.0000   0.2878
  12.600   1.6093   0.03710   0.03074  -0.0943  0.1829  1.0000  -3.9403   0.0000   0.0000   0.0000   0.2871
  12.700   1.6102   0.03792   0.03155  -0.0937  0.1776  1.0000  -3.9772   0.0000   0.0000   0.0000   0.2865
  12.800   1.6101   0.03883   0.03245  -0.0930  0.1727  1.0000  -4.0106   0.0000   0.0000   0.0000   0.2858
  12.900   1.6109   0.03967   0.03328  -0.0923  0.1675  1.0000  -4.0472   0.0000   0.0000   0.0000   0.2852
  13.000   1.6115   0.04055   0.03415  -0.0917  0.1628  1.0000  -4.0827   0.0000   0.0000   0.0000   0.2846
  13.100   1.6114   0.04149   0.03508  -0.0911  0.1582  1.0000  -4.1165   0.0000   0.0000   0.0000   0.2840
  13.200   1.6124   0.04234   0.03593  -0.0905  0.1535  1.0000  -4.1562   0.0000   0.0000   0.0000   0.2834
  13.300   1.6120   0.04334   0.03692  -0.0899  0.1494  1.0000  -4.1907   0.0000   0.0000   0.0000   0.2828
  13.400   1.6131   0.04421   0.03779  -0.0893  0.1448  1.0000  -4.2307   0.0000   0.0000   0.0000   0.2822
  13.500   1.6130   0.04519   0.03876  -0.0888  0.1408  1.0000  -4.2667   0.0000   0.0000   0.0000   0.2816
  13.600   1.6134   0.04614   0.03971  -0.0882  0.1366  1.0000  -4.3043   0.0000   0.0000   0.0000   0.2811
  13.700   1.6136   0.04711   0.04068  -0.0877  0.1327  1.0000  -4.3412   0.0000   0.0000   0.0000   0.2805
  13.800   1.6135   0.04812   0.04168  -0.0872  0.1289  1.0000  -4.3769   0.0000   0.0000   0.0000   0.2800
  13.900   1.6139   0.04909   0.04266  -0.0867  0.1251  1.0000  -4.4150   0.0000   0.0000   0.0000   0.2795
  14.000   1.6135   0.05016   0.04372  -0.0862  0.1216  1.0000  -4.4518   0.0000   0.0000   0.0000   0.2789
  14.100   1.6140   0.05114   0.04471  -0.0857  0.1180  1.0000  -4.4923   0.0000   0.0000   0.0000   0.2784
  14.200   1.6133   0.05225   0.04581  -0.0853  0.1148  1.0000  -4.5282   0.0000   0.0000   0.0000   0.2779
  14.300   1.6138   0.05326   0.04683  -0.0848  0.1114  1.0000  -4.5685   0.0000   0.0000   0.0000   0.2774
  14.400   1.6131   0.05439   0.04796  -0.0844  0.1083  1.0000  -4.6043   0.0000   0.0000   0.0000   0.2770
  14.500   1.6132   0.05544   0.04903  -0.0840  0.1052  1.0000  -4.6434   0.0000   0.0000   0.0000   0.2765
  14.600   1.6126   0.05658   0.05016  -0.0836  0.1023  1.0000  -4.6797   0.0000   0.0000   0.0000   0.2760
  14.700   1.6122   0.05771   0.05130  -0.0832  0.0997  1.0000  -4.7163   0.0000   0.0000   0.0000   0.2756
  14.800   1.6120   0.05882   0.05242  -0.0828  0.0969  1.0000  -4.7542   0.0000   0.0000   0.0000   0.2751
  14.900   1.6104   0.06010   0.05370  -0.0825  0.0947  1.0000  -4.7880   0.0000   0.0000   0.0000   0.2747
  15.000   1.6111   0.06113   0.05476  -0.0821  0.0919  1.0000  -4.8320   0.0000   0.0000   0.0000   0.2743
  15.100   1.6099   0.06239   0.05601  -0.0818  0.0897  1.0000  -4.8676   0.0000   0.0000   0.0000   0.2739
  15.200   1.6094   0.06357   0.05721  -0.0815  0.0875  1.0000  -4.9065   0.0000   0.0000   0.0000   0.2735
  15.300   1.6091   0.06474   0.05840  -0.0812  0.0853  1.0000  -4.9462   0.0000   0.0000   0.0000   0.2731
  15.400   1.6074   0.06608   0.05974  -0.0809  0.0834  1.0000  -4.9796   0.0000   0.0000   0.0000   0.2727
  15.500   1.6074   0.06723   0.06092  -0.0807  0.0813  1.0000  -5.0203   0.0000   0.0000   0.0000   0.2724
  15.600   1.6067   0.06847   0.06217  -0.0804  0.0793  1.0000  -5.0583   0.0000   0.0000   0.0000   0.2720
  15.700   1.6048   0.06985   0.06356  -0.0802  0.0778  1.0000  -5.0905   0.0000   0.0000   0.0000   0.2717
  15.800   1.6045   0.07106   0.06479  -0.0800  0.0759  1.0000  -5.1301   0.0000   0.0000   0.0000   0.2713
  15.900   1.6039   0.07230   0.06606  -0.0798  0.0741  1.0000  -5.1684   0.0000   0.0000   0.0000   0.2710
  16.000   1.6020   0.07372   0.06748  -0.0796  0.0726  1.0000  -5.2007   0.0000   0.0000   0.0000   0.2707
  16.100   1.6008   0.07506   0.06885  -0.0794  0.0711  1.0000  -5.2355   0.0000   0.0000   0.0000   0.2704
  16.200   1.6006   0.07629   0.07011  -0.0793  0.0694  1.0000  -5.2756   0.0000   0.0000   0.0000   0.2701
  16.300   1.5991   0.07768   0.07152  -0.0792  0.0680  1.0000  -5.3096   0.0000   0.0000   0.0000   0.2698
  16.400   1.5964   0.07923   0.07307  -0.0791  0.0669  1.0000  -5.3376   0.0000   0.0000   0.0000   0.2696
  16.500   1.5962   0.08049   0.07436  -0.0790  0.0653  1.0000  -5.3770   0.0000   0.0000   0.0000   0.2693
  16.600   1.5956   0.08179   0.07570  -0.0789  0.0639  1.0000  -5.4146   0.0000   0.0000   0.0000   0.2690
  16.700   1.5936   0.08327   0.07719  -0.0788  0.0627  1.0000  -5.4460   0.0000   0.0000   0.0000   0.2688
  16.800   1.5906   0.08489   0.07881  -0.0788  0.0618  1.0000  -5.4717   0.0000   0.0000   0.0000   0.2686
  16.900   1.5901   0.08619   0.08016  -0.0787  0.0605  1.0000  -5.5095   0.0000   0.0000   0.0000   0.2684
  17.000   1.5894   0.08753   0.08154  -0.0787  0.0592  1.0000  -5.5463   0.0000   0.0000   0.0000   0.2682
  17.100   1.5877   0.08902   0.08304  -0.0787  0.0581  1.0000  -5.5780   0.0000   0.0000   0.0000   0.2680
  17.200   1.5848   0.09065   0.08468  -0.0788  0.0572  1.0000  -5.6043   0.0000   0.0000   0.0000   0.2678
  17.300   1.5827   0.09219   0.08624  -0.0788  0.0563  1.0000  -5.6336   0.0000   0.0000   0.0000   0.2677
  17.400   1.5823   0.09353   0.08763  -0.0788  0.0551  1.0000  -5.6710   0.0000   0.0000   0.0000   0.2675
  17.500   1.5812   0.09496   0.08909  -0.0789  0.0540  1.0000  -5.7052   0.0000   0.0000   0.0000   0.2673
  17.600   1.5790   0.09654   0.09069  -0.0790  0.0531  1.0000  -5.7340   0.0000   0.0000   0.0000   0.2672
  17.700   1.5758   0.09824   0.09239  -0.0792  0.0524  1.0000  -5.7581   0.0000   0.0000   0.0000   0.2672
  17.800   1.5744   0.09974   0.09393  -0.0793  0.0514  1.0000  -5.7895   0.0000   0.0000   0.0000   0.2670
  17.900   1.5737   0.10113   0.09537  -0.0794  0.0504  1.0000  -5.8247   0.0000   0.0000   0.0000   0.2669
  18.000   1.5723   0.10262   0.09689  -0.0796  0.0494  1.0000  -5.8571   0.0000   0.0000   0.0000   0.2668
  18.100   1.5702   0.10421   0.09850  -0.0798  0.0487  1.0000  -5.8856   0.0000   0.0000   0.0000   0.2667
  18.200   1.5673   0.10589   0.10018  -0.0800  0.0480  1.0000  -5.9100   0.0000   0.0000   0.0000   0.2667
  18.300   1.5651   0.10750   0.10181  -0.0802  0.0472  1.0000  -5.9368   0.0000   0.0000   0.0000   0.2667
  18.400   1.5646   0.10890   0.10327  -0.0804  0.0463  1.0000  -5.9718   0.0000   0.0000   0.0000   0.2666
  18.500   1.5634   0.11040   0.10481  -0.0807  0.0454  1.0000  -6.0037   0.0000   0.0000   0.0000   0.2665
  18.600   1.5618   0.11195   0.10639  -0.0810  0.0447  1.0000  -6.0339   0.0000   0.0000   0.0000   0.2665
  18.700   1.5598   0.11357   0.10801  -0.0813  0.0440  1.0000  -6.0617   0.0000   0.0000   0.0000   0.2665
  18.800   1.5570   0.11526   0.10970  -0.0816  0.0435  1.0000  -6.0851   0.0000   0.0000   0.0000   0.2666
  18.900   1.5560   0.11675   0.11123  -0.0819  0.0427  1.0000  -6.1164   0.0000   0.0000   0.0000   0.2666
  19.000   1.5552   0.11822   0.11276  -0.0822  0.0420  1.0000  -6.1485   0.0000   0.0000   0.0000   0.2665
  19.100   1.5541   0.11973   0.11430  -0.0826  0.0412  1.0000  -6.1797   0.0000   0.0000   0.0000   0.2666
  19.200   1.5528   0.12127   0.11586  -0.0830  0.0406  1.0000  -6.2103   0.0000   0.0000   0.0000   0.2666
  19.300   1.5512   0.12284   0.11745  -0.0834  0.0400  1.0000  -6.2390   0.0000   0.0000   0.0000   0.2667
  19.400   1.5493   0.12442   0.11902  -0.0838  0.0395  1.0000  -6.2664   0.0000   0.0000   0.0000   0.2667
  19.500   1.5479   0.12595   0.12057  -0.0842  0.0390  1.0000  -6.2944   0.0000   0.0000   0.0000   0.2668
  19.600   1.5471   0.12743   0.12212  -0.0846  0.0383  1.0000  -6.3253   0.0000   0.0000   0.0000   0.2668
  19.700   1.5464   0.12891   0.12364  -0.0851  0.0377  1.0000  -6.3565   0.0000   0.0000   0.0000   0.2669
  19.800   1.5454   0.13043   0.12519  -0.0855  0.0371  1.0000  -6.3870   0.0000   0.0000   0.0000   0.2669
  19.900   1.5444   0.13193   0.12672  -0.0860  0.0366  1.0000  -6.4180   0.0000   0.0000   0.0000   0.2670
  20.000   1.5434   0.13343   0.12823  -0.0865  0.0361  1.0000  -6.4491   0.0000   0.0000   0.0000   0.2671


