xflr5 v6.57

 Calculated polar for: wine

 1 1 Reynolds number fixed          Mach number fixed         

 xtrf =   1.000 (top)        1.000 (bottom)
 Mach =   0.000     Re =     0.280 e 6     Ncrit =   9.000

  alpha     CL        CD       CDp       Cm    Top Xtr Bot Xtr   Cpmin    Chinge    XCp    
 ------- -------- --------- --------- -------- ------- ------- -------- --------- ---------
  -9.700  -0.1248   0.09598   0.09251  -0.0838  0.8800  0.0497  -1.6369   0.0000   0.0000   0.0000  -0.4755
  -9.300  -0.1294   0.08867   0.08521  -0.0895  0.8720  0.0519  -1.8266   0.0000   0.0000   0.0000  -0.4923
  -9.200  -0.1239   0.08801   0.08453  -0.0891  0.8706  0.0522  -1.7833   0.0000   0.0000   0.0000  -0.5209
  -9.100  -0.1183   0.08730   0.08382  -0.0889  0.8688  0.0525  -1.7443   0.0000   0.0000   0.0000  -0.5553
  -9.000  -0.1135   0.08650   0.08302  -0.0891  0.8668  0.0530  -1.7148   0.0000   0.0000   0.0000  -0.5899
  -8.900  -0.1097   0.08556   0.08208  -0.0894  0.8650  0.0537  -1.6975   0.0000   0.0000   0.0000  -0.6207
  -8.800  -0.1073   0.08443   0.08093  -0.0900  0.8634  0.0545  -1.6952   0.0000   0.0000   0.0000  -0.6456
  -8.700  -0.1087   0.08259   0.07909  -0.0917  0.8617  0.0559  -1.7445   0.0000   0.0000   0.0000  -0.6496
  -8.200  -0.2037   0.03913   0.03473  -0.1386  0.8464  0.0416  -3.5959   0.0000   0.0000   0.0000  -0.4620
  -8.100  -0.1959   0.03837   0.03397  -0.1388  0.8453  0.0417  -3.5405   0.0000   0.0000   0.0000  -0.4907
  -8.000  -0.1881   0.03770   0.03330  -0.1390  0.8435  0.0419  -3.4852   0.0000   0.0000   0.0000  -0.5225
  -7.900  -0.1800   0.03712   0.03271  -0.1393  0.8416  0.0421  -3.4270   0.0000   0.0000   0.0000  -0.5582
  -7.800  -0.1714   0.03668   0.03226  -0.1395  0.8400  0.0424  -3.3637   0.0000   0.0000   0.0000  -0.5991
  -7.700  -0.1621   0.03645   0.03204  -0.1395  0.8386  0.0427  -3.2937   0.0000   0.0000   0.0000  -0.6472
  -7.600  -0.1511   0.03691   0.03256  -0.1391  0.8375  0.0434  -3.1883   0.0000   0.0000   0.0000  -0.7094
  -7.500  -0.1325   0.04085   0.03677  -0.1367  0.8367  0.0477  -2.9014   0.0000   0.0000   0.0000  -0.8236
  -7.400  -0.1231   0.04091   0.03684  -0.1366  0.8350  0.0485  -2.8252   0.0000   0.0000   0.0000  -0.9038
  -7.300  -0.1140   0.04120   0.03712  -0.1370  0.8331  0.0528  -2.7316   0.0000   0.0000   0.0000  -0.9984
  -7.200  -0.1051   0.04102   0.03695  -0.1370  0.8315  0.0534  -2.6679   0.0000   0.0000   0.0000  -1.1032
  -7.100  -0.1240   0.02566   0.01975  -0.1438  0.8292  0.0428  -3.4354   0.0000   0.0000   0.0000  -0.9561
  -7.000  -0.1140   0.02511   0.01912  -0.1439  0.8281  0.0433  -3.3850   0.0000   0.0000   0.0000  -1.0618
  -6.900  -0.1043   0.02444   0.01833  -0.1440  0.8268  0.0436  -3.3453   0.0000   0.0000   0.0000  -1.1840
  -6.800  -0.0949   0.02376   0.01753  -0.1441  0.8249  0.0440  -3.3095   0.0000   0.0000   0.0000  -1.3269
  -6.700  -0.0851   0.02310   0.01673  -0.1442  0.8232  0.0443  -3.2721   0.0000   0.0000   0.0000  -1.5085
  -6.600  -0.0750   0.02247   0.01595  -0.1443  0.8218  0.0448  -3.2333   0.0000   0.0000   0.0000  -1.7447
  -6.500  -0.0647   0.02187   0.01519  -0.1443  0.8206  0.0452  -3.1934   0.0000   0.0000   0.0000  -2.0631
  -6.400  -0.0540   0.02132   0.01447  -0.1443  0.8195  0.0457  -3.1522   0.0000   0.0000   0.0000  -2.5164
  -6.300  -0.0431   0.02091   0.01384  -0.1444  0.8186  0.0463  -3.1086   0.0000   0.0000   0.0000  -3.2178
  -6.200  -0.0334   0.02041   0.01339  -0.1444  0.8166  0.0469  -3.0484   0.0000   0.0000   0.0000  -4.2228
  -6.100  -0.0230   0.02016   0.01317  -0.1444  0.8149  0.0475  -2.9828   0.0000   0.0000   0.0000  -6.2324
  -6.000  -0.0123   0.01994   0.01295  -0.1444  0.8135  0.0483  -2.9224   0.0000   0.0000   0.0000  -11.8389
  -5.900  -0.0015   0.01968   0.01265  -0.1445  0.8122  0.0490  -2.8674   0.0000   0.0000   0.0000  -100.1771
  -5.800   0.0095   0.01937   0.01225  -0.1445  0.8111  0.0498  -2.8181   0.0000   0.0000   0.0000  15.9150
  -5.700   0.0207   0.01903   0.01180  -0.1445  0.8101  0.0506  -2.7725   0.0000   0.0000   0.0000   7.4485
  -5.600   0.0318   0.01875   0.01138  -0.1445  0.8089  0.0513  -2.7286   0.0000   0.0000   0.0000   4.9300
  -5.500   0.0418   0.01837   0.01102  -0.1444  0.8070  0.0520  -2.6794   0.0000   0.0000   0.0000   3.8072
  -5.400   0.0523   0.01811   0.01079  -0.1444  0.8053  0.0527  -2.6225   0.0000   0.0000   0.0000   3.0915
  -5.300   0.0632   0.01789   0.01056  -0.1444  0.8039  0.0535  -2.5659   0.0000   0.0000   0.0000   2.6019
  -5.200   0.0743   0.01767   0.01031  -0.1444  0.8027  0.0544  -2.5109   0.0000   0.0000   0.0000   2.2503
  -5.100   0.0856   0.01745   0.01004  -0.1444  0.8016  0.0556  -2.4574   0.0000   0.0000   0.0000   1.9858
  -5.000   0.0972   0.01729   0.00975  -0.1445  0.8007  0.0568  -2.4060   0.0000   0.0000   0.0000   1.7779
  -4.900   0.1076   0.01698   0.00950  -0.1445  0.7992  0.0579  -2.3504   0.0000   0.0000   0.0000   1.6292
  -4.800   0.1179   0.01683   0.00940  -0.1444  0.7973  0.0591  -2.2936   0.0000   0.0000   0.0000   1.5072
  -4.700   0.1288   0.01668   0.00923  -0.1444  0.7957  0.0604  -2.2399   0.0000   0.0000   0.0000   1.4004
  -4.600   0.1399   0.01651   0.00900  -0.1444  0.7943  0.0619  -2.1940   0.0000   0.0000   0.0000   1.3080
  -4.500   0.1510   0.01627   0.00873  -0.1444  0.7931  0.0631  -2.1483   0.0000   0.0000   0.0000   1.2295
  -4.400   0.1622   0.01604   0.00854  -0.1444  0.7921  0.0644  -2.0966   0.0000   0.0000   0.0000   1.1621
  -4.300   0.1736   0.01587   0.00836  -0.1445  0.7911  0.0661  -2.0455   0.0000   0.0000   0.0000   1.1017
  -4.200   0.1844   0.01578   0.00823  -0.1444  0.7895  0.0680  -1.9989   0.0000   0.0000   0.0000   1.0513
  -4.100   0.1948   0.01560   0.00809  -0.1444  0.7876  0.0697  -1.9514   0.0000   0.0000   0.0000   1.0080
  -4.000   0.2056   0.01546   0.00798  -0.1444  0.7860  0.0717  -1.9002   0.0000   0.0000   0.0000   0.9676
  -3.900   0.2169   0.01535   0.00783  -0.1444  0.7847  0.0740  -1.8516   0.0000   0.0000   0.0000   0.9300
  -3.800   0.2281   0.01515   0.00764  -0.1445  0.7835  0.0762  -1.8028   0.0000   0.0000   0.0000   0.8964
  -3.700   0.2395   0.01500   0.00750  -0.1445  0.7825  0.0786  -1.7518   0.0000   0.0000   0.0000   0.8654
  -3.600   0.2513   0.01488   0.00733  -0.1446  0.7815  0.0816  -1.7031   0.0000   0.0000   0.0000   0.8365
  -3.500   0.2615   0.01475   0.00727  -0.1446  0.7796  0.0843  -1.6548   0.0000   0.0000   0.0000   0.8131
  -3.400   0.2723   0.01468   0.00719  -0.1445  0.7777  0.0878  -1.6095   0.0000   0.0000   0.0000   0.7904
  -3.300   0.2833   0.01453   0.00708  -0.1446  0.7762  0.0912  -1.5651   0.0000   0.0000   0.0000   0.7693
  -3.200   0.2946   0.01442   0.00695  -0.1446  0.7749  0.0957  -1.5217   0.0000   0.0000   0.0000   0.7491
  -3.100   0.3060   0.01427   0.00683  -0.1447  0.7737  0.1002  -1.4763   0.0000   0.0000   0.0000   0.7305
  -3.000   0.3177   0.01413   0.00669  -0.1448  0.7727  0.1057  -1.4315   0.0000   0.0000   0.0000   0.7129
  -2.900   0.3295   0.01399   0.00656  -0.1449  0.7718  0.1123  -1.3867   0.0000   0.0000   0.0000   0.6964
  -2.800   0.3396   0.01393   0.00656  -0.1448  0.7695  0.1194  -1.3454   0.0000   0.0000   0.0000   0.6826
  -2.700   0.3504   0.01383   0.00650  -0.1448  0.7677  0.1280  -1.3025   0.0000   0.0000   0.0000   0.6691
  -2.600   0.3616   0.01371   0.00643  -0.1449  0.7662  0.1383  -1.2588   0.0000   0.0000   0.0000   0.6561
  -2.500   0.3730   0.01358   0.00634  -0.1450  0.7649  0.1511  -1.2147   0.0000   0.0000   0.0000   0.6436
  -2.400   0.3846   0.01344   0.00625  -0.1451  0.7638  0.1658  -1.1703   0.0000   0.0000   0.0000   0.6318
  -2.300   0.3964   0.01331   0.00616  -0.1452  0.7628  0.1831  -1.1254   0.0000   0.0000   0.0000   0.6206
  -2.200   0.4076   0.01321   0.00612  -0.1453  0.7614  0.2015  -1.0816   0.0000   0.0000   0.0000   0.6103
  -2.100   0.4179   0.01315   0.00615  -0.1453  0.7592  0.2201  -1.0413   0.0000   0.0000   0.0000   0.6012
  -2.000   0.4288   0.01306   0.00614  -0.1454  0.7574  0.2406  -1.0017   0.0000   0.0000   0.0000   0.5921
  -1.900   0.4401   0.01296   0.00610  -0.1454  0.7559  0.2623  -0.9615   0.0000   0.0000   0.0000   0.5833
  -1.800   0.4516   0.01285   0.00606  -0.1455  0.7547  0.2853  -0.9212   0.0000   0.0000   0.0000   0.5749
  -1.700   0.4633   0.01274   0.00600  -0.1457  0.7536  0.3097  -0.8807   0.0000   0.0000   0.0000   0.5667
  -1.600   0.4751   0.01263   0.00595  -0.1458  0.7526  0.3356  -0.8403   0.0000   0.0000   0.0000   0.5589
  -1.500   0.4854   0.01259   0.00600  -0.1458  0.7505  0.3613  -0.8197   0.0000   0.0000   0.0000   0.5521
  -1.400   0.4959   0.01252   0.00603  -0.1457  0.7485  0.3885  -0.8265   0.0000   0.0000   0.0000   0.5454
  -1.300   0.5070   0.01244   0.00603  -0.1458  0.7468  0.4177  -0.8340   0.0000   0.0000   0.0000   0.5388
  -1.200   0.5182   0.01234   0.00601  -0.1458  0.7454  0.4478  -0.8418   0.0000   0.0000   0.0000   0.5324
  -1.100   0.5297   0.01223   0.00599  -0.1458  0.7442  0.4798  -0.8497   0.0000   0.0000   0.0000   0.5262
  -1.000   0.5412   0.01213   0.00596  -0.1459  0.7431  0.5117  -0.8577   0.0000   0.0000   0.0000   0.5202
  -0.900   0.5520   0.01206   0.00598  -0.1458  0.7416  0.5434  -0.8653   0.0000   0.0000   0.0000   0.5146
  -0.800   0.5618   0.01203   0.00606  -0.1456  0.7393  0.5734  -0.8723   0.0000   0.0000   0.0000   0.5094
  -0.700   0.5722   0.01197   0.00610  -0.1454  0.7375  0.6039  -0.8797   0.0000   0.0000   0.0000   0.5042
  -0.600   0.5828   0.01190   0.00611  -0.1452  0.7360  0.6348  -0.8874   0.0000   0.0000   0.0000   0.4990
  -0.500   0.5937   0.01182   0.00610  -0.1450  0.7347  0.6648  -0.8955   0.0000   0.0000   0.0000   0.4940
  -0.400   0.6046   0.01175   0.00608  -0.1448  0.7335  0.6931  -0.9037   0.0000   0.0000   0.0000   0.4891
  -0.300   0.6154   0.01169   0.00606  -0.1446  0.7324  0.7198  -0.9119   0.0000   0.0000   0.0000   0.4843
  -0.200   0.6241   0.01171   0.00617  -0.1441  0.7298  0.7434  -0.9184   0.0000   0.0000   0.0000   0.4800
  -0.100   0.6336   0.01168   0.00621  -0.1437  0.7278  0.7668  -0.9256   0.0000   0.0000   0.0000   0.4757
   0.000   0.6435   0.01163   0.00620  -0.1432  0.7262  0.7893  -0.9334   0.0000   0.0000   0.0000   0.4714
   0.100   0.6533   0.01156   0.00617  -0.1428  0.7248  0.8112  -0.9412   0.0000   0.0000   0.0000   0.4672
   0.300   0.6724   0.01142   0.00608  -0.1416  0.7224  0.8561  -0.9571   0.0000   0.0000   0.0000   0.4589
   0.400   0.6793   0.01142   0.00615  -0.1406  0.7197  0.8805  -0.9631   0.0000   0.0000   0.0000   0.4552
   0.500   0.6880   0.01135   0.00614  -0.1399  0.7177  0.9092  -0.9704   0.0000   0.0000   0.0000   0.4514
   0.600   0.7024   0.01126   0.00606  -0.1404  0.7160  0.9481  -0.9814   0.0000   0.0000   0.0000   0.4477
   0.700   0.7206   0.01120   0.00595  -0.1418  0.7146  1.0000  -0.9946   0.0000   0.0000   0.0000   0.4445
   0.800   0.7331   0.01119   0.00589  -0.1421  0.7133  1.0000  -1.0047   0.0000   0.0000   0.0000   0.4413
   0.900   0.7450   0.01122   0.00588  -0.1423  0.7117  1.0000  -1.0142   0.0000   0.0000   0.0000   0.4383
   1.000   0.7553   0.01128   0.00595  -0.1422  0.7091  1.0000  -1.0229   0.0000   0.0000   0.0000   0.4355
   1.100   0.7667   0.01131   0.00595  -0.1423  0.7071  1.0000  -1.0324   0.0000   0.0000   0.0000   0.4327
   1.200   0.7786   0.01132   0.00592  -0.1425  0.7054  1.0000  -1.0423   0.0000   0.0000   0.0000   0.4299
   1.300   0.7909   0.01132   0.00588  -0.1427  0.7039  1.0000  -1.0525   0.0000   0.0000   0.0000   0.4272
   1.400   0.8033   0.01131   0.00582  -0.1429  0.7027  1.0000  -1.0632   0.0000   0.0000   0.0000   0.4245
   1.500   0.8136   0.01138   0.00589  -0.1428  0.7002  1.0000  -1.0723   0.0000   0.0000   0.0000   0.4221
   1.600   0.8245   0.01142   0.00592  -0.1428  0.6978  1.0000  -1.0821   0.0000   0.0000   0.0000   0.4196
   1.700   0.8360   0.01143   0.00591  -0.1429  0.6959  1.0000  -1.0924   0.0000   0.0000   0.0000   0.4172
   1.800   0.8480   0.01143   0.00588  -0.1431  0.6942  1.0000  -1.1030   0.0000   0.0000   0.0000   0.4148
   1.900   0.8603   0.01142   0.00583  -0.1432  0.6928  1.0000  -1.1142   0.0000   0.0000   0.0000   0.4124
   2.000   0.8711   0.01147   0.00587  -0.1432  0.6906  1.0000  -1.1245   0.0000   0.0000   0.0000   0.4102
   2.100   0.8816   0.01152   0.00592  -0.1431  0.6879  1.0000  -1.1346   0.0000   0.0000   0.0000   0.4080
   2.200   0.8929   0.01153   0.00591  -0.1432  0.6858  1.0000  -1.1456   0.0000   0.0000   0.0000   0.4059
   2.300   0.9048   0.01153   0.00588  -0.1433  0.6840  1.0000  -1.1571   0.0000   0.0000   0.0000   0.4038
   2.400   0.9170   0.01153   0.00584  -0.1435  0.6825  1.0000  -1.1690   0.0000   0.0000   0.0000   0.4017
   2.500   0.9276   0.01158   0.00589  -0.1434  0.6801  1.0000  -1.1798   0.0000   0.0000   0.0000   0.3997
   2.600   0.9380   0.01162   0.00594  -0.1433  0.6774  1.0000  -1.1906   0.0000   0.0000   0.0000   0.3978
   2.700   0.9493   0.01164   0.00594  -0.1434  0.6752  1.0000  -1.2023   0.0000   0.0000   0.0000   0.3959
   2.800   0.9612   0.01164   0.00591  -0.1435  0.6734  1.0000  -1.2146   0.0000   0.0000   0.0000   0.3940
   2.900   0.9735   0.01164   0.00587  -0.1437  0.6718  1.0000  -1.2274   0.0000   0.0000   0.0000   0.3921
   3.000   0.9832   0.01170   0.00596  -0.1435  0.6688  1.0000  -1.2380   0.0000   0.0000   0.0000   0.3903
   3.100   0.9939   0.01174   0.00599  -0.1434  0.6662  1.0000  -1.2498   0.0000   0.0000   0.0000   0.3886
   3.200   1.0053   0.01175   0.00598  -0.1434  0.6640  1.0000  -1.2625   0.0000   0.0000   0.0000   0.3868
   3.300   1.0173   0.01175   0.00595  -0.1436  0.6622  1.0000  -1.2758   0.0000   0.0000   0.0000   0.3852
   3.400   1.0281   0.01178   0.00598  -0.1435  0.6597  1.0000  -1.2880   0.0000   0.0000   0.0000   0.3835
   3.500   1.0382   0.01183   0.00605  -0.1434  0.6566  1.0000  -1.3000   0.0000   0.0000   0.0000   0.3819
   3.600   1.0493   0.01185   0.00605  -0.1433  0.6542  1.0000  -1.3130   0.0000   0.0000   0.0000   0.3802
   3.700   1.0611   0.01185   0.00602  -0.1434  0.6521  1.0000  -1.3270   0.0000   0.0000   0.0000   0.3787
   3.800   1.0722   0.01188   0.00604  -0.1434  0.6497  1.0000  -1.3408   0.0000   0.0000   0.0000   0.3771
   3.900   1.0820   0.01194   0.00612  -0.1432  0.6465  1.0000  -1.3536   0.0000   0.0000   0.0000   0.3756
   4.000   1.0929   0.01196   0.00614  -0.1432  0.6438  1.0000  -1.3678   0.0000   0.0000   0.0000   0.3741
   4.100   1.1046   0.01196   0.00611  -0.1433  0.6416  1.0000  -1.3831   0.0000   0.0000   0.0000   0.3727
   4.200   1.1153   0.01200   0.00615  -0.1432  0.6389  1.0000  -1.3976   0.0000   0.0000   0.0000   0.3712
   4.300   1.1252   0.01206   0.00622  -0.1430  0.6356  1.0000  -1.4118   0.0000   0.0000   0.0000   0.3698
   4.400   1.1362   0.01208   0.00623  -0.1430  0.6329  1.0000  -1.4275   0.0000   0.0000   0.0000   0.3684
   4.500   1.1479   0.01209   0.00621  -0.1431  0.6306  1.0000  -1.4444   0.0000   0.0000   0.0000   0.3670
   4.600   1.1576   0.01215   0.00629  -0.1428  0.6272  1.0000  -1.4598   0.0000   0.0000   0.0000   0.3656
   4.700   1.1678   0.01219   0.00634  -0.1427  0.6239  1.0000  -1.4759   0.0000   0.0000   0.0000   0.3643
   4.800   1.1790   0.01221   0.00634  -0.1427  0.6212  1.0000  -1.4929   0.0000   0.0000   0.0000   0.3630
   4.900   1.1898   0.01225   0.00637  -0.1426  0.6183  1.0000  -1.5100   0.0000   0.0000   0.0000   0.3617
   5.000   1.1993   0.01231   0.00646  -0.1424  0.6145  1.0000  -1.5262   0.0000   0.0000   0.0000   0.3604
   5.100   1.2100   0.01234   0.00647  -0.1423  0.6114  1.0000  -1.5440   0.0000   0.0000   0.0000   0.3591
   5.200   1.2213   0.01237   0.00647  -0.1423  0.6087  1.0000  -1.5631   0.0000   0.0000   0.0000   0.3579
   5.300   1.2303   0.01244   0.00658  -0.1420  0.6045  1.0000  -1.5807   0.0000   0.0000   0.0000   0.3567
   5.400   1.2407   0.01248   0.00661  -0.1418  0.6010  1.0000  -1.6002   0.0000   0.0000   0.0000   0.3554
   5.500   1.2518   0.01251   0.00662  -0.1418  0.5981  1.0000  -1.6212   0.0000   0.0000   0.0000   0.3543
   5.600   1.2607   0.01259   0.00673  -0.1415  0.5937  1.0000  -1.6398   0.0000   0.0000   0.0000   0.3530
   5.700   1.2710   0.01264   0.00677  -0.1413  0.5901  1.0000  -1.6606   0.0000   0.0000   0.0000   0.3519
   5.800   1.2814   0.01269   0.00680  -0.1412  0.5866  1.0000  -1.6817   0.0000   0.0000   0.0000   0.3507
   5.900   1.2905   0.01276   0.00690  -0.1409  0.5822  1.0000  -1.7016   0.0000   0.0000   0.0000   0.3495
   6.000   1.3008   0.01282   0.00693  -0.1407  0.5785  1.0000  -1.7234   0.0000   0.0000   0.0000   0.3484
   6.100   1.3103   0.01289   0.00701  -0.1405  0.5744  1.0000  -1.7449   0.0000   0.0000   0.0000   0.3473
   6.200   1.3197   0.01296   0.00710  -0.1402  0.5700  1.0000  -1.7665   0.0000   0.0000   0.0000   0.3462
   6.400   1.3387   0.01312   0.00725  -0.1397  0.5615  1.0000  -1.8135   0.0000   0.0000   0.0000   0.3440
   6.500   1.3484   0.01319   0.00731  -0.1394  0.5574  1.0000  -1.8402   0.0000   0.0000   0.0000   0.3429
   6.600   1.3576   0.01328   0.00741  -0.1391  0.5529  1.0000  -1.8667   0.0000   0.0000   0.0000   0.3418
   6.700   1.3666   0.01338   0.00750  -0.1388  0.5482  1.0000  -1.8939   0.0000   0.0000   0.0000   0.3407
   6.800   1.3760   0.01347   0.00757  -0.1385  0.5439  1.0000  -1.9229   0.0000   0.0000   0.0000   0.3397
   6.900   1.3845   0.01357   0.00769  -0.1381  0.5387  1.0000  -1.9517   0.0000   0.0000   0.0000   0.3386
   7.100   1.4019   0.01378   0.00790  -0.1373  0.5288  1.0000  -2.0109   0.0000   0.0000   0.0000   0.3365
   7.200   1.4108   0.01390   0.00798  -0.1369  0.5241  1.0000  -2.0424   0.0000   0.0000   0.0000   0.3354
   7.300   1.4188   0.01402   0.00813  -0.1364  0.5186  1.0000  -2.0723   0.0000   0.0000   0.0000   0.3344
   7.400   1.4273   0.01414   0.00823  -0.1360  0.5138  1.0000  -2.1039   0.0000   0.0000   0.0000   0.3334
   7.500   1.4351   0.01428   0.00837  -0.1355  0.5083  1.0000  -2.1352   0.0000   0.0000   0.0000   0.3323
   7.600   1.4432   0.01441   0.00849  -0.1350  0.5032  1.0000  -2.1672   0.0000   0.0000   0.0000   0.3313
   7.700   1.4508   0.01456   0.00864  -0.1345  0.4977  1.0000  -2.1984   0.0000   0.0000   0.0000   0.3303
   7.800   1.4585   0.01471   0.00878  -0.1339  0.4925  1.0000  -2.2299   0.0000   0.0000   0.0000   0.3293
   7.900   1.4657   0.01486   0.00894  -0.1333  0.4868  1.0000  -2.2622   0.0000   0.0000   0.0000   0.3282
   8.000   1.4729   0.01503   0.00908  -0.1327  0.4814  1.0000  -2.2947   0.0000   0.0000   0.0000   0.3272
   8.100   1.4796   0.01520   0.00926  -0.1320  0.4755  1.0000  -2.3263   0.0000   0.0000   0.0000   0.3262
   8.200   1.4862   0.01539   0.00942  -0.1313  0.4700  1.0000  -2.3581   0.0000   0.0000   0.0000   0.3251
   8.300   1.4923   0.01557   0.00961  -0.1305  0.4637  1.0000  -2.3892   0.0000   0.0000   0.0000   0.3241
   8.400   1.4978   0.01577   0.00978  -0.1296  0.4581  1.0000  -2.4206   0.0000   0.0000   0.0000   0.3230
   8.500   1.5026   0.01597   0.00998  -0.1286  0.4517  1.0000  -2.4507   0.0000   0.0000   0.0000   0.3219
   8.600   1.5076   0.01619   0.01019  -0.1277  0.4458  1.0000  -2.4813   0.0000   0.0000   0.0000   0.3208
   8.700   1.5123   0.01642   0.01042  -0.1267  0.4396  1.0000  -2.5115   0.0000   0.0000   0.0000   0.3197
   8.800   1.5170   0.01667   0.01065  -0.1257  0.4335  1.0000  -2.5448   0.0000   0.0000   0.0000   0.3187
   8.900   1.5214   0.01694   0.01090  -0.1247  0.4276  1.0000  -2.5812   0.0000   0.0000   0.0000   0.3176
   9.000   1.5259   0.01720   0.01117  -0.1238  0.4212  1.0000  -2.6184   0.0000   0.0000   0.0000   0.3166
   9.100   1.5299   0.01750   0.01144  -0.1228  0.4155  1.0000  -2.6564   0.0000   0.0000   0.0000   0.3155
   9.200   1.5342   0.01779   0.01174  -0.1218  0.4091  1.0000  -2.6948   0.0000   0.0000   0.0000   0.3145
   9.300   1.5381   0.01811   0.01204  -0.1209  0.4031  1.0000  -2.7327   0.0000   0.0000   0.0000   0.3135
   9.400   1.5418   0.01845   0.01237  -0.1199  0.3968  1.0000  -2.7701   0.0000   0.0000   0.0000   0.3125
   9.500   1.5456   0.01879   0.01270  -0.1190  0.3906  1.0000  -2.8080   0.0000   0.0000   0.0000   0.3116
   9.600   1.5487   0.01918   0.01306  -0.1180  0.3847  1.0000  -2.8444   0.0000   0.0000   0.0000   0.3106
   9.700   1.5525   0.01954   0.01343  -0.1171  0.3781  1.0000  -2.8825   0.0000   0.0000   0.0000   0.3096
   9.800   1.5557   0.01995   0.01382  -0.1161  0.3722  1.0000  -2.9190   0.0000   0.0000   0.0000   0.3087
   9.900   1.5589   0.02036   0.01423  -0.1152  0.3658  1.0000  -2.9559   0.0000   0.0000   0.0000   0.3078
  10.000   1.5621   0.02078   0.01464  -0.1143  0.3595  1.0000  -2.9928   0.0000   0.0000   0.0000   0.3069
  10.100   1.5647   0.02125   0.01509  -0.1133  0.3536  1.0000  -3.0282   0.0000   0.0000   0.0000   0.3059
  10.200   1.5680   0.02169   0.01553  -0.1125  0.3470  1.0000  -3.0656   0.0000   0.0000   0.0000   0.3051
  10.300   1.5705   0.02218   0.01600  -0.1116  0.3410  1.0000  -3.1010   0.0000   0.0000   0.0000   0.3042
  10.400   1.5732   0.02267   0.01649  -0.1107  0.3346  1.0000  -3.1369   0.0000   0.0000   0.0000   0.3033
  10.500   1.5759   0.02317   0.01698  -0.1098  0.3283  1.0000  -3.1731   0.0000   0.0000   0.0000   0.3024
  10.700   1.5805   0.02425   0.01803  -0.1081  0.3158  1.0000  -3.2465   0.0000   0.0000   0.0000   0.3007
  10.800   1.5825   0.02482   0.01859  -0.1072  0.3097  1.0000  -3.2831   0.0000   0.0000   0.0000   0.2999
  10.900   1.5843   0.02541   0.01917  -0.1063  0.3035  1.0000  -3.3191   0.0000   0.0000   0.0000   0.2991
  11.000   1.5866   0.02598   0.01974  -0.1055  0.2971  1.0000  -3.3566   0.0000   0.0000   0.0000   0.2983
  11.100   1.5879   0.02663   0.02036  -0.1046  0.2912  1.0000  -3.3913   0.0000   0.0000   0.0000   0.2975
  11.200   1.5898   0.02724   0.02096  -0.1038  0.2848  1.0000  -3.4279   0.0000   0.0000   0.0000   0.2967
  11.300   1.5915   0.02787   0.02159  -0.1030  0.2786  1.0000  -3.4640   0.0000   0.0000   0.0000   0.2959
  11.400   1.5922   0.02858   0.02227  -0.1021  0.2728  1.0000  -3.4973   0.0000   0.0000   0.0000   0.2951
  11.500   1.5942   0.02921   0.02290  -0.1013  0.2663  1.0000  -3.5343   0.0000   0.0000   0.0000   0.2943
  11.600   1.5953   0.02992   0.02359  -0.1005  0.2604  1.0000  -3.5686   0.0000   0.0000   0.0000   0.2936
  11.700   1.5960   0.03065   0.02430  -0.0996  0.2544  1.0000  -3.6020   0.0000   0.0000   0.0000   0.2928
  11.800   1.5974   0.03134   0.02499  -0.0989  0.2482  1.0000  -3.6376   0.0000   0.0000   0.0000   0.2921
  11.900   1.5979   0.03211   0.02574  -0.0981  0.2425  1.0000  -3.6703   0.0000   0.0000   0.0000   0.2913
  12.000   1.5987   0.03286   0.02649  -0.0973  0.2365  1.0000  -3.7042   0.0000   0.0000   0.0000   0.2906
  12.100   1.5996   0.03362   0.02724  -0.0965  0.2306  1.0000  -3.7382   0.0000   0.0000   0.0000   0.2899
  12.200   1.5994   0.03446   0.02806  -0.0957  0.2252  1.0000  -3.7688   0.0000   0.0000   0.0000   0.2892
  12.300   1.6004   0.03522   0.02882  -0.0950  0.2191  1.0000  -3.8033   0.0000   0.0000   0.0000   0.2885
  12.400   1.6007   0.03605   0.02963  -0.0942  0.2134  1.0000  -3.8369   0.0000   0.0000   0.0000   0.2878
  12.500   1.6004   0.03694   0.03050  -0.0934  0.2080  1.0000  -3.8692   0.0000   0.0000   0.0000   0.2871
  12.600   1.6012   0.03775   0.03131  -0.0928  0.2021  1.0000  -3.9055   0.0000   0.0000   0.0000   0.2865
  12.700   1.6011   0.03865   0.03219  -0.0921  0.1968  1.0000  -3.9386   0.0000   0.0000   0.0000   0.2858
  12.800   1.6010   0.03956   0.03309  -0.0914  0.1914  1.0000  -3.9716   0.0000   0.0000   0.0000   0.2852
  12.900   1.6014   0.04043   0.03396  -0.0907  0.1859  1.0000  -4.0066   0.0000   0.0000   0.0000   0.2846
  13.000   1.6008   0.04141   0.03492  -0.0900  0.1810  1.0000  -4.0380   0.0000   0.0000   0.0000   0.2839
  13.100   1.6011   0.04232   0.03583  -0.0894  0.1756  1.0000  -4.0725   0.0000   0.0000   0.0000   0.2833
  13.200   1.6012   0.04327   0.03677  -0.0888  0.1707  1.0000  -4.1068   0.0000   0.0000   0.0000   0.2828
  13.300   1.6004   0.04430   0.03778  -0.0882  0.1660  1.0000  -4.1398   0.0000   0.0000   0.0000   0.2822
  13.400   1.6010   0.04522   0.03871  -0.0877  0.1610  1.0000  -4.1776   0.0000   0.0000   0.0000   0.2816
  13.500   1.6001   0.04628   0.03976  -0.0871  0.1568  1.0000  -4.2099   0.0000   0.0000   0.0000   0.2810
  13.600   1.6004   0.04724   0.04072  -0.0865  0.1521  1.0000  -4.2468   0.0000   0.0000   0.0000   0.2805
  13.700   1.5999   0.04828   0.04175  -0.0860  0.1479  1.0000  -4.2809   0.0000   0.0000   0.0000   0.2799
  13.800   1.5996   0.04933   0.04279  -0.0855  0.1437  1.0000  -4.3152   0.0000   0.0000   0.0000   0.2794
  13.900   1.5995   0.05036   0.04383  -0.0850  0.1396  1.0000  -4.3505   0.0000   0.0000   0.0000   0.2789
  14.000   1.5986   0.05148   0.04493  -0.0845  0.1358  1.0000  -4.3830   0.0000   0.0000   0.0000   0.2784
  14.100   1.5988   0.05251   0.04598  -0.0840  0.1318  1.0000  -4.4205   0.0000   0.0000   0.0000   0.2779
  14.200   1.5976   0.05368   0.04714  -0.0836  0.1283  1.0000  -4.4539   0.0000   0.0000   0.0000   0.2774
  14.300   1.5978   0.05472   0.04819  -0.0832  0.1245  1.0000  -4.4926   0.0000   0.0000   0.0000   0.2769
  14.400   1.5964   0.05593   0.04939  -0.0827  0.1213  1.0000  -4.5250   0.0000   0.0000   0.0000   0.2765
  14.500   1.5965   0.05699   0.05046  -0.0823  0.1178  1.0000  -4.5634   0.0000   0.0000   0.0000   0.2760
  14.600   1.5952   0.05822   0.05169  -0.0819  0.1148  1.0000  -4.5958   0.0000   0.0000   0.0000   0.2756
  14.700   1.5950   0.05933   0.05281  -0.0816  0.1115  1.0000  -4.6331   0.0000   0.0000   0.0000   0.2751
  14.800   1.5939   0.06056   0.05405  -0.0812  0.1087  1.0000  -4.6663   0.0000   0.0000   0.0000   0.2747
  14.900   1.5932   0.06175   0.05525  -0.0809  0.1058  1.0000  -4.7010   0.0000   0.0000   0.0000   0.2743
  15.000   1.5925   0.06295   0.05646  -0.0806  0.1030  1.0000  -4.7360   0.0000   0.0000   0.0000   0.2739
  15.100   1.5906   0.06430   0.05780  -0.0802  0.1007  1.0000  -4.7659   0.0000   0.0000   0.0000   0.2735
  15.200   1.5908   0.06542   0.05895  -0.0800  0.0978  1.0000  -4.8062   0.0000   0.0000   0.0000   0.2731
  15.300   1.5890   0.06676   0.06029  -0.0797  0.0956  1.0000  -4.8388   0.0000   0.0000   0.0000   0.2728
  15.400   1.5883   0.06799   0.06154  -0.0794  0.0933  1.0000  -4.8756   0.0000   0.0000   0.0000   0.2724
  15.500   1.5875   0.06924   0.06281  -0.0792  0.0909  1.0000  -4.9120   0.0000   0.0000   0.0000   0.2720
  15.600   1.5853   0.07066   0.06422  -0.0789  0.0892  1.0000  -4.9424   0.0000   0.0000   0.0000   0.2717
  15.700   1.5851   0.07186   0.06546  -0.0787  0.0869  1.0000  -4.9811   0.0000   0.0000   0.0000   0.2714
  15.800   1.5841   0.07317   0.06678  -0.0785  0.0849  1.0000  -5.0166   0.0000   0.0000   0.0000   0.2711
  15.900   1.5816   0.07464   0.06825  -0.0784  0.0833  1.0000  -5.0458   0.0000   0.0000   0.0000   0.2708
  16.000   1.5814   0.07588   0.06952  -0.0782  0.0813  1.0000  -5.0840   0.0000   0.0000   0.0000   0.2705
  16.100   1.5805   0.07719   0.07085  -0.0781  0.0794  1.0000  -5.1200   0.0000   0.0000   0.0000   0.2702
  16.200   1.5783   0.07867   0.07233  -0.0779  0.0780  1.0000  -5.1498   0.0000   0.0000   0.0000   0.2699
  16.300   1.5771   0.08003   0.07371  -0.0778  0.0764  1.0000  -5.1838   0.0000   0.0000   0.0000   0.2697
  16.400   1.5767   0.08131   0.07504  -0.0777  0.0746  1.0000  -5.2211   0.0000   0.0000   0.0000   0.2694
  16.500   1.5750   0.08274   0.07648  -0.0777  0.0731  1.0000  -5.2531   0.0000   0.0000   0.0000   0.2691
  16.600   1.5720   0.08433   0.07806  -0.0776  0.0720  1.0000  -5.2790   0.0000   0.0000   0.0000   0.2690
  16.700   1.5720   0.08557   0.07935  -0.0775  0.0703  1.0000  -5.3180   0.0000   0.0000   0.0000   0.2687
  16.800   1.5711   0.08694   0.08075  -0.0775  0.0688  1.0000  -5.3530   0.0000   0.0000   0.0000   0.2685
  16.900   1.5691   0.08845   0.08227  -0.0775  0.0676  1.0000  -5.3829   0.0000   0.0000   0.0000   0.2683
  17.000   1.5665   0.09002   0.08383  -0.0775  0.0665  1.0000  -5.4099   0.0000   0.0000   0.0000   0.2681
  17.100   1.5663   0.09131   0.08518  -0.0775  0.0650  1.0000  -5.4476   0.0000   0.0000   0.0000   0.2679
  17.200   1.5654   0.09272   0.08662  -0.0776  0.0636  1.0000  -5.4820   0.0000   0.0000   0.0000   0.2677
  17.300   1.5634   0.09424   0.08814  -0.0776  0.0626  1.0000  -5.5119   0.0000   0.0000   0.0000   0.2676
  17.400   1.5607   0.09584   0.08973  -0.0777  0.0617  1.0000  -5.5378   0.0000   0.0000   0.0000   0.2675
  17.500   1.5605   0.09718   0.09113  -0.0778  0.0603  1.0000  -5.5742   0.0000   0.0000   0.0000   0.2673
  17.600   1.5595   0.09859   0.09259  -0.0779  0.0591  1.0000  -5.6076   0.0000   0.0000   0.0000   0.2671
  17.700   1.5580   0.10007   0.09408  -0.0780  0.0581  1.0000  -5.6393   0.0000   0.0000   0.0000   0.2670
  17.800   1.5558   0.10162   0.09563  -0.0781  0.0573  1.0000  -5.6674   0.0000   0.0000   0.0000   0.2669
  17.900   1.5542   0.10310   0.09712  -0.0783  0.0563  1.0000  -5.6971   0.0000   0.0000   0.0000   0.2668
  18.000   1.5536   0.10450   0.09858  -0.0784  0.0552  1.0000  -5.7309   0.0000   0.0000   0.0000   0.2667
  18.100   1.5525   0.10596   0.10008  -0.0786  0.0541  1.0000  -5.7630   0.0000   0.0000   0.0000   0.2666
  18.200   1.5512   0.10744   0.10157  -0.0788  0.0532  1.0000  -5.7946   0.0000   0.0000   0.0000   0.2665
  18.300   1.5494   0.10895   0.10307  -0.0790  0.0525  1.0000  -5.8242   0.0000   0.0000   0.0000   0.2665
  18.400   1.5482   0.11041   0.10455  -0.0792  0.0516  1.0000  -5.8548   0.0000   0.0000   0.0000   0.2664
  18.500   1.5475   0.11184   0.10605  -0.0794  0.0506  1.0000  -5.8873   0.0000   0.0000   0.0000   0.2663
  18.600   1.5465   0.11331   0.10755  -0.0797  0.0497  1.0000  -5.9192   0.0000   0.0000   0.0000   0.2663
  18.700   1.5455   0.11477   0.10903  -0.0800  0.0488  1.0000  -5.9514   0.0000   0.0000   0.0000   0.2662
  18.800   1.5443   0.11622   0.11046  -0.0803  0.0481  1.0000  -5.9837   0.0000   0.0000   0.0000   0.2662
  18.900   1.5434   0.11759   0.11182  -0.0805  0.0474  1.0000  -6.0162   0.0000   0.0000   0.0000   0.2661
  19.000   1.5426   0.11908   0.11339  -0.0809  0.0465  1.0000  -6.0464   0.0000   0.0000   0.0000   0.2661
  19.100   1.5418   0.12053   0.11489  -0.0812  0.0457  1.0000  -6.0779   0.0000   0.0000   0.0000   0.2661
  19.200   1.5410   0.12198   0.11636  -0.0816  0.0450  1.0000  -6.1100   0.0000   0.0000   0.0000   0.2661
  19.300   1.5404   0.12338   0.11777  -0.0819  0.0443  1.0000  -6.1439   0.0000   0.0000   0.0000   0.2661
  19.400   1.5400   0.12468   0.11905  -0.0822  0.0437  1.0000  -6.1797   0.0000   0.0000   0.0000   0.2660
  19.500   1.5396   0.12598   0.12036  -0.0825  0.0430  1.0000  -6.2137   0.0000   0.0000   0.0000   0.2660
  19.600   1.5388   0.12750   0.12196  -0.0829  0.0423  1.0000  -6.2420   0.0000   0.0000   0.0000   0.2660
  19.700   1.5382   0.12894   0.12345  -0.0834  0.0416  1.0000  -6.2733   0.0000   0.0000   0.0000   0.2661
  19.800   1.5378   0.13035   0.12489  -0.0838  0.0409  1.0000  -6.3061   0.0000   0.0000   0.0000   0.2661
  19.900   1.5376   0.13171   0.12626  -0.0842  0.0403  1.0000  -6.3416   0.0000   0.0000   0.0000   0.2661
  20.000   1.5379   0.13295   0.12749  -0.0846  0.0398  1.0000  -6.3803   0.0000   0.0000   0.0000   0.2661


