xflr5 v6.57

 Calculated polar for: wine

 1 1 Reynolds number fixed          Mach number fixed         

 xtrf =   1.000 (top)        1.000 (bottom)
 Mach =   0.000     Re =     0.820 e 6     Ncrit =   9.000

  alpha     CL        CD       CDp       Cm    Top Xtr Bot Xtr   Cpmin    Chinge    XCp    
 ------- -------- --------- --------- -------- ------- ------- -------- --------- ---------
 -10.000  -0.4547   0.01983   0.01491  -0.1368  0.8028  0.0208  -6.4969   0.0000   0.0000   0.0000  -0.0715
  -9.900  -0.4445   0.01954   0.01454  -0.1369  0.8016  0.0210  -6.4066   0.0000   0.0000   0.0000  -0.0788
  -9.800  -0.4341   0.01928   0.01421  -0.1371  0.8005  0.0210  -6.3145   0.0000   0.0000   0.0000  -0.0866
  -9.700  -0.4255   0.01852   0.01337  -0.1373  0.7991  0.0213  -6.2499   0.0000   0.0000   0.0000  -0.0936
  -9.600  -0.4162   0.01794   0.01274  -0.1374  0.7976  0.0215  -6.1727   0.0000   0.0000   0.0000  -0.1013
  -9.500  -0.4061   0.01758   0.01237  -0.1375  0.7962  0.0217  -6.0822   0.0000   0.0000   0.0000  -0.1100
  -9.400  -0.3957   0.01731   0.01208  -0.1377  0.7949  0.0219  -5.9937   0.0000   0.0000   0.0000  -0.1194
  -9.300  -0.3851   0.01709   0.01183  -0.1378  0.7936  0.0220  -5.9037   0.0000   0.0000   0.0000  -0.1295
  -9.200  -0.3745   0.01688   0.01159  -0.1379  0.7924  0.0222  -5.8137   0.0000   0.0000   0.0000  -0.1401
  -9.100  -0.3638   0.01669   0.01136  -0.1379  0.7913  0.0224  -5.7238   0.0000   0.0000   0.0000  -0.1515
  -9.000  -0.3530   0.01650   0.01115  -0.1380  0.7901  0.0226  -5.6340   0.0000   0.0000   0.0000  -0.1637
  -8.900  -0.3421   0.01631   0.01094  -0.1381  0.7887  0.0228  -5.5450   0.0000   0.0000   0.0000  -0.1768
  -8.800  -0.3312   0.01612   0.01072  -0.1382  0.7873  0.0231  -5.4571   0.0000   0.0000   0.0000  -0.1907
  -8.700  -0.3203   0.01592   0.01049  -0.1383  0.7860  0.0233  -5.3707   0.0000   0.0000   0.0000  -0.2055
  -8.600  -0.3094   0.01573   0.01026  -0.1384  0.7847  0.0236  -5.2853   0.0000   0.0000   0.0000  -0.2214
  -8.500  -0.2985   0.01554   0.01002  -0.1385  0.7836  0.0238  -5.2010   0.0000   0.0000   0.0000  -0.2385
  -8.400  -0.2876   0.01536   0.00979  -0.1386  0.7825  0.0241  -5.1176   0.0000   0.0000   0.0000  -0.2569
  -8.300  -0.2766   0.01519   0.00956  -0.1386  0.7814  0.0243  -5.0346   0.0000   0.0000   0.0000  -0.2769
  -8.200  -0.2655   0.01501   0.00935  -0.1387  0.7802  0.0244  -4.9517   0.0000   0.0000   0.0000  -0.2988
  -8.100  -0.2543   0.01486   0.00917  -0.1388  0.7788  0.0246  -4.8681   0.0000   0.0000   0.0000  -0.3227
  -8.000  -0.2444   0.01435   0.00862  -0.1389  0.7775  0.0249  -4.8024   0.0000   0.0000   0.0000  -0.3460
  -7.900  -0.2338   0.01405   0.00830  -0.1390  0.7762  0.0252  -4.7240   0.0000   0.0000   0.0000  -0.3729
  -7.800  -0.2228   0.01384   0.00809  -0.1391  0.7750  0.0255  -4.6405   0.0000   0.0000   0.0000  -0.4034
  -7.700  -0.2118   0.01368   0.00791  -0.1392  0.7738  0.0257  -4.5558   0.0000   0.0000   0.0000  -0.4373
  -7.600  -0.2007   0.01354   0.00775  -0.1392  0.7728  0.0260  -4.4714   0.0000   0.0000   0.0000  -0.4753
  -7.500  -0.1895   0.01341   0.00759  -0.1393  0.7718  0.0262  -4.3878   0.0000   0.0000   0.0000  -0.5178
  -7.400  -0.1783   0.01326   0.00743  -0.1394  0.7705  0.0265  -4.3053   0.0000   0.0000   0.0000  -0.5658
  -7.300  -0.1671   0.01311   0.00726  -0.1395  0.7691  0.0268  -4.2239   0.0000   0.0000   0.0000  -0.6203
  -7.200  -0.1559   0.01296   0.00709  -0.1395  0.7678  0.0271  -4.1435   0.0000   0.0000   0.0000  -0.6827
  -7.100  -0.1446   0.01283   0.00693  -0.1396  0.7665  0.0275  -4.0634   0.0000   0.0000   0.0000  -0.7550
  -7.000  -0.1333   0.01271   0.00678  -0.1397  0.7653  0.0278  -3.9832   0.0000   0.0000   0.0000  -0.8400
  -6.900  -0.1220   0.01261   0.00664  -0.1397  0.7642  0.0281  -3.9028   0.0000   0.0000   0.0000  -0.9413
  -6.800  -0.1105   0.01254   0.00653  -0.1398  0.7631  0.0284  -3.8221   0.0000   0.0000   0.0000  -1.0644
  -6.700  -0.0999   0.01220   0.00617  -0.1399  0.7621  0.0289  -3.7529   0.0000   0.0000   0.0000  -1.2037
  -6.600  -0.0888   0.01202   0.00599  -0.1400  0.7609  0.0293  -3.6748   0.0000   0.0000   0.0000  -1.3858
  -6.500  -0.0775   0.01189   0.00587  -0.1401  0.7595  0.0297  -3.6007   0.0000   0.0000   0.0000  -1.6237
  -6.400  -0.0662   0.01177   0.00575  -0.1402  0.7583  0.0301  -3.5280   0.0000   0.0000   0.0000  -1.9442
  -6.300  -0.0548   0.01166   0.00562  -0.1402  0.7570  0.0305  -3.4563   0.0000   0.0000   0.0000  -2.3982
  -6.200  -0.0435   0.01155   0.00550  -0.1403  0.7558  0.0309  -3.3856   0.0000   0.0000   0.0000  -3.0906
  -6.100  -0.0321   0.01145   0.00537  -0.1404  0.7547  0.0314  -3.3157   0.0000   0.0000   0.0000  -4.2762
  -6.000  -0.0206   0.01135   0.00524  -0.1404  0.7536  0.0318  -3.2465   0.0000   0.0000   0.0000  -6.7786
  -5.900  -0.0092   0.01128   0.00512  -0.1405  0.7526  0.0322  -3.1772   0.0000   0.0000   0.0000  -15.5807
  -5.800   0.0021   0.01112   0.00495  -0.1406  0.7513  0.0327  -3.1114   0.0000   0.0000   0.0000  69.5750
  -5.700   0.0132   0.01092   0.00476  -0.1407  0.7500  0.0333  -3.0454   0.0000   0.0000   0.0000  11.2160
  -5.600   0.0246   0.01080   0.00465  -0.1408  0.7487  0.0339  -2.9761   0.0000   0.0000   0.0000   6.1476
  -5.500   0.0360   0.01071   0.00456  -0.1409  0.7473  0.0345  -2.9065   0.0000   0.0000   0.0000   4.2756
  -5.400   0.0475   0.01064   0.00447  -0.1409  0.7461  0.0351  -2.8378   0.0000   0.0000   0.0000   3.3034
  -5.300   0.0590   0.01056   0.00438  -0.1410  0.7449  0.0359  -2.7700   0.0000   0.0000   0.0000   2.7080
  -5.200   0.0705   0.01051   0.00429  -0.1411  0.7439  0.0365  -2.7028   0.0000   0.0000   0.0000   2.3055
  -5.100   0.0819   0.01038   0.00414  -0.1412  0.7428  0.0372  -2.6386   0.0000   0.0000   0.0000   2.0199
  -5.000   0.0933   0.01025   0.00402  -0.1413  0.7416  0.0381  -2.5734   0.0000   0.0000   0.0000   1.8047
  -4.900   0.1047   0.01016   0.00394  -0.1413  0.7403  0.0388  -2.5115   0.0000   0.0000   0.0000   1.6346
  -4.800   0.1162   0.01008   0.00386  -0.1414  0.7389  0.0397  -2.4513   0.0000   0.0000   0.0000   1.4976
  -4.700   0.1278   0.01001   0.00377  -0.1415  0.7376  0.0406  -2.3919   0.0000   0.0000   0.0000   1.3849
  -4.600   0.1393   0.00996   0.00370  -0.1416  0.7363  0.0413  -2.3329   0.0000   0.0000   0.0000   1.2905
  -4.500   0.1507   0.00981   0.00355  -0.1417  0.7351  0.0425  -2.2761   0.0000   0.0000   0.0000   1.2121
  -4.400   0.1622   0.00974   0.00347  -0.1417  0.7340  0.0435  -2.2168   0.0000   0.0000   0.0000   1.1439
  -4.300   0.1738   0.00969   0.00340  -0.1418  0.7329  0.0447  -2.1580   0.0000   0.0000   0.0000   1.0844
  -4.200   0.1853   0.00964   0.00334  -0.1419  0.7317  0.0458  -2.1001   0.0000   0.0000   0.0000   1.0323
  -4.100   0.1968   0.00954   0.00325  -0.1420  0.7303  0.0471  -2.0436   0.0000   0.0000   0.0000   0.9867
  -4.000   0.2083   0.00945   0.00318  -0.1421  0.7289  0.0486  -1.9859   0.0000   0.0000   0.0000   0.9461
  -3.900   0.2198   0.00940   0.00312  -0.1421  0.7275  0.0501  -1.9286   0.0000   0.0000   0.0000   0.9095
  -3.700   0.2429   0.00925   0.00297  -0.1423  0.7250  0.0534  -1.8167   0.0000   0.0000   0.0000   0.8469
  -3.600   0.2544   0.00920   0.00291  -0.1424  0.7239  0.0553  -1.7609   0.0000   0.0000   0.0000   0.8197
  -3.500   0.2660   0.00917   0.00285  -0.1425  0.7228  0.0571  -1.7072   0.0000   0.0000   0.0000   0.7948
  -3.400   0.2775   0.00908   0.00279  -0.1426  0.7215  0.0594  -1.6571   0.0000   0.0000   0.0000   0.7723
  -3.300   0.2890   0.00902   0.00274  -0.1426  0.7200  0.0618  -1.6071   0.0000   0.0000   0.0000   0.7514
  -3.200   0.3006   0.00895   0.00268  -0.1427  0.7185  0.0646  -1.5576   0.0000   0.0000   0.0000   0.7322
  -3.100   0.3121   0.00889   0.00263  -0.1428  0.7171  0.0678  -1.5081   0.0000   0.0000   0.0000   0.7144
  -3.000   0.3236   0.00882   0.00257  -0.1429  0.7157  0.0713  -1.4591   0.0000   0.0000   0.0000   0.6978
  -2.900   0.3352   0.00877   0.00252  -0.1430  0.7145  0.0753  -1.4105   0.0000   0.0000   0.0000   0.6823
  -2.800   0.3467   0.00871   0.00247  -0.1431  0.7133  0.0800  -1.3621   0.0000   0.0000   0.0000   0.6680
  -2.700   0.3583   0.00866   0.00243  -0.1432  0.7121  0.0853  -1.3142   0.0000   0.0000   0.0000   0.6545
  -2.600   0.3698   0.00859   0.00239  -0.1433  0.7105  0.0914  -1.2667   0.0000   0.0000   0.0000   0.6419
  -2.500   0.3813   0.00852   0.00236  -0.1434  0.7090  0.0986  -1.2196   0.0000   0.0000   0.0000   0.6301
  -2.400   0.3928   0.00846   0.00232  -0.1434  0.7075  0.1068  -1.1728   0.0000   0.0000   0.0000   0.6190
  -2.300   0.4043   0.00840   0.00229  -0.1435  0.7061  0.1160  -1.1264   0.0000   0.0000   0.0000   0.6085
  -2.200   0.4158   0.00834   0.00225  -0.1436  0.7048  0.1259  -1.0803   0.0000   0.0000   0.0000   0.5985
  -2.100   0.4273   0.00829   0.00222  -0.1437  0.7035  0.1365  -1.0346   0.0000   0.0000   0.0000   0.5891
  -2.000   0.4389   0.00824   0.00219  -0.1438  0.7023  0.1481  -0.9924   0.0000   0.0000   0.0000   0.5803
  -1.900   0.4503   0.00817   0.00218  -0.1439  0.7007  0.1602  -0.9510   0.0000   0.0000   0.0000   0.5718
  -1.800   0.4618   0.00811   0.00216  -0.1440  0.6991  0.1725  -0.9100   0.0000   0.0000   0.0000   0.5638
  -1.700   0.4733   0.00805   0.00214  -0.1441  0.6976  0.1851  -0.8693   0.0000   0.0000   0.0000   0.5562
  -1.600   0.4848   0.00800   0.00212  -0.1442  0.6961  0.1986  -0.8290   0.0000   0.0000   0.0000   0.5490
  -1.500   0.4963   0.00794   0.00210  -0.1443  0.6947  0.2128  -0.8360   0.0000   0.0000   0.0000   0.5420
  -1.400   0.5078   0.00790   0.00209  -0.1444  0.6933  0.2277  -0.8434   0.0000   0.0000   0.0000   0.5354
  -1.300   0.5193   0.00786   0.00207  -0.1445  0.6920  0.2432  -0.8510   0.0000   0.0000   0.0000   0.5291
  -1.200   0.5308   0.00780   0.00207  -0.1446  0.6903  0.2587  -0.8584   0.0000   0.0000   0.0000   0.5230
  -1.100   0.5422   0.00774   0.00206  -0.1447  0.6886  0.2756  -0.8663   0.0000   0.0000   0.0000   0.5173
  -1.000   0.5537   0.00768   0.00205  -0.1448  0.6869  0.2935  -0.8742   0.0000   0.0000   0.0000   0.5117
  -0.900   0.5651   0.00762   0.00205  -0.1449  0.6853  0.3126  -0.8821   0.0000   0.0000   0.0000   0.5064
  -0.800   0.5766   0.00757   0.00204  -0.1450  0.6838  0.3326  -0.8901   0.0000   0.0000   0.0000   0.5013
  -0.700   0.5880   0.00753   0.00203  -0.1451  0.6824  0.3533  -0.8982   0.0000   0.0000   0.0000   0.4963
  -0.600   0.5994   0.00747   0.00204  -0.1452  0.6809  0.3752  -0.9063   0.0000   0.0000   0.0000   0.4916
  -0.500   0.6108   0.00741   0.00205  -0.1453  0.6791  0.3985  -0.9144   0.0000   0.0000   0.0000   0.4871
  -0.400   0.6222   0.00735   0.00205  -0.1454  0.6773  0.4225  -0.9226   0.0000   0.0000   0.0000   0.4827
  -0.300   0.6336   0.00729   0.00206  -0.1455  0.6756  0.4469  -0.9310   0.0000   0.0000   0.0000   0.4785
  -0.200   0.6450   0.00724   0.00206  -0.1456  0.6740  0.4720  -0.9393   0.0000   0.0000   0.0000   0.4744
  -0.100   0.6564   0.00720   0.00207  -0.1456  0.6726  0.4970  -0.9477   0.0000   0.0000   0.0000   0.4704
   0.000   0.6677   0.00716   0.00208  -0.1457  0.6710  0.5220  -0.9561   0.0000   0.0000   0.0000   0.4666
   0.200   0.6904   0.00705   0.00212  -0.1458  0.6672  0.5715  -0.9730   0.0000   0.0000   0.0000   0.4593
   0.300   0.7016   0.00700   0.00213  -0.1459  0.6654  0.5971  -0.9817   0.0000   0.0000   0.0000   0.4558
   0.400   0.7128   0.00696   0.00215  -0.1459  0.6637  0.6232  -0.9905   0.0000   0.0000   0.0000   0.4524
   0.500   0.7240   0.00693   0.00217  -0.1459  0.6621  0.6491  -0.9993   0.0000   0.0000   0.0000   0.4491
   0.600   0.7351   0.00690   0.00220  -0.1459  0.6603  0.6725  -1.0082   0.0000   0.0000   0.0000   0.4459
   0.700   0.7463   0.00687   0.00222  -0.1459  0.6582  0.6932  -1.0174   0.0000   0.0000   0.0000   0.4428
   0.800   0.7574   0.00684   0.00224  -0.1459  0.6562  0.7122  -1.0267   0.0000   0.0000   0.0000   0.4398
   0.900   0.7685   0.00682   0.00226  -0.1458  0.6542  0.7304  -1.0359   0.0000   0.0000   0.0000   0.4368
   1.000   0.7795   0.00681   0.00228  -0.1458  0.6524  0.7479  -1.0453   0.0000   0.0000   0.0000   0.4339
   1.100   0.7904   0.00680   0.00230  -0.1457  0.6507  0.7653  -1.0547   0.0000   0.0000   0.0000   0.4311
   1.200   0.8014   0.00678   0.00233  -0.1456  0.6485  0.7820  -1.0641   0.0000   0.0000   0.0000   0.4284
   1.300   0.8122   0.00675   0.00235  -0.1455  0.6464  0.7982  -1.0735   0.0000   0.0000   0.0000   0.4257
   1.400   0.8230   0.00674   0.00237  -0.1454  0.6443  0.8141  -1.0829   0.0000   0.0000   0.0000   0.4231
   1.500   0.8335   0.00673   0.00239  -0.1453  0.6423  0.8303  -1.0925   0.0000   0.0000   0.0000   0.4205
   1.600   0.8438   0.00672   0.00240  -0.1451  0.6406  0.8468  -1.1021   0.0000   0.0000   0.0000   0.4180
   1.700   0.8540   0.00669   0.00243  -0.1448  0.6383  0.8653  -1.1117   0.0000   0.0000   0.0000   0.4155
   1.800   0.8636   0.00665   0.00245  -0.1444  0.6359  0.8872  -1.1209   0.0000   0.0000   0.0000   0.4130
   1.900   0.8724   0.00660   0.00246  -0.1438  0.6337  0.9151  -1.1297   0.0000   0.0000   0.0000   0.4105
   2.000   0.8843   0.00655   0.00244  -0.1438  0.6316  0.9601  -1.1409   0.0000   0.0000   0.0000   0.4082
   2.100   0.8989   0.00656   0.00243  -0.1446  0.6295  1.0000  -1.1538   0.0000   0.0000   0.0000   0.4063
   2.200   0.9104   0.00658   0.00245  -0.1447  0.6269  1.0000  -1.1649   0.0000   0.0000   0.0000   0.4042
   2.300   0.9218   0.00660   0.00247  -0.1448  0.6243  1.0000  -1.1761   0.0000   0.0000   0.0000   0.4022
   2.400   0.9331   0.00664   0.00249  -0.1448  0.6219  1.0000  -1.1873   0.0000   0.0000   0.0000   0.4002
   2.500   0.9443   0.00669   0.00251  -0.1448  0.6198  1.0000  -1.1987   0.0000   0.0000   0.0000   0.3983
   2.600   0.9557   0.00671   0.00253  -0.1449  0.6171  1.0000  -1.2103   0.0000   0.0000   0.0000   0.3964
   2.700   0.9670   0.00674   0.00256  -0.1450  0.6144  1.0000  -1.2221   0.0000   0.0000   0.0000   0.3946
   2.800   0.9782   0.00678   0.00258  -0.1450  0.6118  1.0000  -1.2340   0.0000   0.0000   0.0000   0.3928
   2.900   0.9892   0.00683   0.00260  -0.1450  0.6095  1.0000  -1.2457   0.0000   0.0000   0.0000   0.3910
   3.000   1.0005   0.00686   0.00263  -0.1451  0.6068  1.0000  -1.2577   0.0000   0.0000   0.0000   0.3893
   3.100   1.0118   0.00689   0.00266  -0.1451  0.6039  1.0000  -1.2699   0.0000   0.0000   0.0000   0.3876
   3.200   1.0229   0.00694   0.00269  -0.1452  0.6011  1.0000  -1.2824   0.0000   0.0000   0.0000   0.3859
   3.300   1.0338   0.00699   0.00272  -0.1451  0.5986  1.0000  -1.2949   0.0000   0.0000   0.0000   0.3842
   3.400   1.0450   0.00702   0.00275  -0.1452  0.5955  1.0000  -1.3076   0.0000   0.0000   0.0000   0.3827
   3.500   1.0561   0.00706   0.00278  -0.1452  0.5924  1.0000  -1.3205   0.0000   0.0000   0.0000   0.3811
   3.600   1.0670   0.00711   0.00281  -0.1452  0.5895  1.0000  -1.3333   0.0000   0.0000   0.0000   0.3795
   3.700   1.0779   0.00716   0.00285  -0.1452  0.5865  1.0000  -1.3466   0.0000   0.0000   0.0000   0.3780
   3.800   1.0890   0.00720   0.00289  -0.1452  0.5831  1.0000  -1.3605   0.0000   0.0000   0.0000   0.3765
   3.900   1.0999   0.00726   0.00293  -0.1452  0.5798  1.0000  -1.3745   0.0000   0.0000   0.0000   0.3751
   4.000   1.1106   0.00732   0.00297  -0.1452  0.5767  1.0000  -1.3886   0.0000   0.0000   0.0000   0.3736
   4.100   1.1216   0.00736   0.00301  -0.1452  0.5731  1.0000  -1.4033   0.0000   0.0000   0.0000   0.3722
   4.200   1.1324   0.00742   0.00305  -0.1451  0.5694  1.0000  -1.4181   0.0000   0.0000   0.0000   0.3708
   4.300   1.1429   0.00749   0.00310  -0.1451  0.5660  1.0000  -1.4332   0.0000   0.0000   0.0000   0.3694
   4.400   1.1538   0.00753   0.00314  -0.1451  0.5621  1.0000  -1.4493   0.0000   0.0000   0.0000   0.3681
   4.500   1.1644   0.00759   0.00319  -0.1450  0.5583  1.0000  -1.4656   0.0000   0.0000   0.0000   0.3668
   4.600   1.1749   0.00767   0.00324  -0.1449  0.5546  1.0000  -1.4819   0.0000   0.0000   0.0000   0.3655
   4.700   1.1857   0.00772   0.00330  -0.1449  0.5504  1.0000  -1.4985   0.0000   0.0000   0.0000   0.3642
   4.800   1.1960   0.00780   0.00335  -0.1448  0.5464  1.0000  -1.5149   0.0000   0.0000   0.0000   0.3629
   4.900   1.2066   0.00786   0.00341  -0.1448  0.5423  1.0000  -1.5319   0.0000   0.0000   0.0000   0.3616
   5.000   1.2170   0.00793   0.00347  -0.1447  0.5379  1.0000  -1.5494   0.0000   0.0000   0.0000   0.3604
   5.100   1.2272   0.00802   0.00353  -0.1445  0.5339  1.0000  -1.5667   0.0000   0.0000   0.0000   0.3592
   5.200   1.2378   0.00808   0.00359  -0.1445  0.5294  1.0000  -1.5861   0.0000   0.0000   0.0000   0.3580
   5.300   1.2478   0.00817   0.00366  -0.1443  0.5250  1.0000  -1.6054   0.0000   0.0000   0.0000   0.3568
   5.400   1.2582   0.00825   0.00373  -0.1442  0.5206  1.0000  -1.6254   0.0000   0.0000   0.0000   0.3556
   5.500   1.2683   0.00833   0.00380  -0.1441  0.5157  1.0000  -1.6455   0.0000   0.0000   0.0000   0.3545
   5.600   1.2782   0.00843   0.00387  -0.1440  0.5111  1.0000  -1.6659   0.0000   0.0000   0.0000   0.3533
   5.700   1.2883   0.00851   0.00394  -0.1438  0.5058  1.0000  -1.6866   0.0000   0.0000   0.0000   0.3522
   5.800   1.2980   0.00862   0.00403  -0.1436  0.5008  1.0000  -1.7071   0.0000   0.0000   0.0000   0.3510
   5.900   1.3080   0.00871   0.00410  -0.1435  0.4953  1.0000  -1.7285   0.0000   0.0000   0.0000   0.3499
   6.000   1.3174   0.00882   0.00419  -0.1432  0.4902  1.0000  -1.7499   0.0000   0.0000   0.0000   0.3488
   6.100   1.3273   0.00892   0.00428  -0.1431  0.4846  1.0000  -1.7721   0.0000   0.0000   0.0000   0.3477
   6.200   1.3366   0.00904   0.00438  -0.1428  0.4796  1.0000  -1.7938   0.0000   0.0000   0.0000   0.3467
   6.300   1.3464   0.00914   0.00446  -0.1426  0.4740  1.0000  -1.8181   0.0000   0.0000   0.0000   0.3456
   6.400   1.3556   0.00927   0.00457  -0.1423  0.4689  1.0000  -1.8441   0.0000   0.0000   0.0000   0.3445
   6.500   1.3652   0.00937   0.00466  -0.1421  0.4632  1.0000  -1.8712   0.0000   0.0000   0.0000   0.3435
   6.600   1.3742   0.00951   0.00477  -0.1418  0.4579  1.0000  -1.8983   0.0000   0.0000   0.0000   0.3424
   6.700   1.3836   0.00962   0.00487  -0.1416  0.4521  1.0000  -1.9277   0.0000   0.0000   0.0000   0.3414
   6.800   1.3924   0.00976   0.00498  -0.1413  0.4466  1.0000  -1.9573   0.0000   0.0000   0.0000   0.3404
   6.900   1.4014   0.00989   0.00510  -0.1410  0.4405  1.0000  -1.9872   0.0000   0.0000   0.0000   0.3393
   7.000   1.4101   0.01003   0.00522  -0.1406  0.4344  1.0000  -2.0174   0.0000   0.0000   0.0000   0.3383
   7.100   1.4184   0.01019   0.00535  -0.1402  0.4278  1.0000  -2.0477   0.0000   0.0000   0.0000   0.3373
   7.200   1.4269   0.01034   0.00547  -0.1398  0.4210  1.0000  -2.0789   0.0000   0.0000   0.0000   0.3363
   7.300   1.4348   0.01051   0.00561  -0.1393  0.4143  1.0000  -2.1103   0.0000   0.0000   0.0000   0.3353
   7.400   1.4428   0.01068   0.00575  -0.1389  0.4073  1.0000  -2.1420   0.0000   0.0000   0.0000   0.3342
   7.500   1.4509   0.01084   0.00589  -0.1384  0.4007  1.0000  -2.1740   0.0000   0.0000   0.0000   0.3332
   7.600   1.4583   0.01103   0.00605  -0.1379  0.3943  1.0000  -2.2050   0.0000   0.0000   0.0000   0.3322
   7.700   1.4663   0.01119   0.00619  -0.1374  0.3876  1.0000  -2.2379   0.0000   0.0000   0.0000   0.3312
   7.800   1.4733   0.01137   0.00635  -0.1368  0.3813  1.0000  -2.2700   0.0000   0.0000   0.0000   0.3302
   7.900   1.4796   0.01156   0.00651  -0.1360  0.3747  1.0000  -2.3009   0.0000   0.0000   0.0000   0.3291
   8.000   1.4865   0.01174   0.00667  -0.1354  0.3681  1.0000  -2.3330   0.0000   0.0000   0.0000   0.3281
   8.100   1.4927   0.01195   0.00685  -0.1346  0.3618  1.0000  -2.3640   0.0000   0.0000   0.0000   0.3271
   8.200   1.4992   0.01216   0.00703  -0.1339  0.3552  1.0000  -2.3964   0.0000   0.0000   0.0000   0.3261
   8.300   1.5056   0.01237   0.00722  -0.1332  0.3489  1.0000  -2.4295   0.0000   0.0000   0.0000   0.3251
   8.400   1.5112   0.01262   0.00744  -0.1324  0.3427  1.0000  -2.4611   0.0000   0.0000   0.0000   0.3240
   8.500   1.5178   0.01282   0.00763  -0.1318  0.3363  1.0000  -2.4949   0.0000   0.0000   0.0000   0.3231
   8.600   1.5236   0.01307   0.00785  -0.1310  0.3302  1.0000  -2.5270   0.0000   0.0000   0.0000   0.3221
   8.700   1.5292   0.01333   0.00809  -0.1303  0.3236  1.0000  -2.5643   0.0000   0.0000   0.0000   0.3211
   8.800   1.5351   0.01358   0.00832  -0.1295  0.3172  1.0000  -2.6066   0.0000   0.0000   0.0000   0.3201
   8.900   1.5402   0.01387   0.00858  -0.1287  0.3109  1.0000  -2.6473   0.0000   0.0000   0.0000   0.3191
   9.000   1.5458   0.01415   0.00884  -0.1280  0.3044  1.0000  -2.6892   0.0000   0.0000   0.0000   0.3182
   9.100   1.5511   0.01444   0.00911  -0.1273  0.2982  1.0000  -2.7309   0.0000   0.0000   0.0000   0.3173
   9.200   1.5558   0.01478   0.00941  -0.1264  0.2919  1.0000  -2.7709   0.0000   0.0000   0.0000   0.3163
   9.300   1.5613   0.01508   0.00969  -0.1258  0.2854  1.0000  -2.8132   0.0000   0.0000   0.0000   0.3154
   9.400   1.5662   0.01541   0.01000  -0.1250  0.2793  1.0000  -2.8543   0.0000   0.0000   0.0000   0.3145
   9.500   1.5706   0.01578   0.01034  -0.1242  0.2730  1.0000  -2.8943   0.0000   0.0000   0.0000   0.3136
   9.600   1.5758   0.01611   0.01066  -0.1235  0.2666  1.0000  -2.9364   0.0000   0.0000   0.0000   0.3127
   9.700   1.5802   0.01649   0.01101  -0.1227  0.2605  1.0000  -2.9767   0.0000   0.0000   0.0000   0.3118
   9.800   1.5844   0.01689   0.01138  -0.1219  0.2541  1.0000  -3.0166   0.0000   0.0000   0.0000   0.3110
   9.900   1.5892   0.01726   0.01173  -0.1212  0.2479  1.0000  -3.0582   0.0000   0.0000   0.0000   0.3101
  10.000   1.5933   0.01768   0.01213  -0.1205  0.2419  1.0000  -3.0982   0.0000   0.0000   0.0000   0.3092
  10.100   1.5972   0.01811   0.01253  -0.1197  0.2356  1.0000  -3.1378   0.0000   0.0000   0.0000   0.3084
  10.200   1.6015   0.01853   0.01293  -0.1190  0.2293  1.0000  -3.1795   0.0000   0.0000   0.0000   0.3075
  10.300   1.6050   0.01900   0.01337  -0.1182  0.2229  1.0000  -3.2207   0.0000   0.0000   0.0000   0.3067
  10.400   1.6080   0.01951   0.01384  -0.1173  0.2163  1.0000  -3.2604   0.0000   0.0000   0.0000   0.3059
  10.500   1.6116   0.01999   0.01430  -0.1166  0.2094  1.0000  -3.3019   0.0000   0.0000   0.0000   0.3050
  10.600   1.6148   0.02049   0.01477  -0.1158  0.2027  1.0000  -3.3425   0.0000   0.0000   0.0000   0.3042
  10.700   1.6176   0.02103   0.01527  -0.1149  0.1962  1.0000  -3.3822   0.0000   0.0000   0.0000   0.3034
  10.800   1.6202   0.02159   0.01580  -0.1141  0.1899  1.0000  -3.4211   0.0000   0.0000   0.0000   0.3026
  10.900   1.6234   0.02210   0.01630  -0.1134  0.1836  1.0000  -3.4622   0.0000   0.0000   0.0000   0.3018
  11.000   1.6265   0.02264   0.01680  -0.1126  0.1779  1.0000  -3.5030   0.0000   0.0000   0.0000   0.3010
  11.100   1.6291   0.02320   0.01734  -0.1118  0.1726  1.0000  -3.5427   0.0000   0.0000   0.0000   0.3002
  11.200   1.6324   0.02373   0.01786  -0.1111  0.1674  1.0000  -3.5843   0.0000   0.0000   0.0000   0.2994
  11.300   1.6355   0.02428   0.01838  -0.1104  0.1625  1.0000  -3.6255   0.0000   0.0000   0.0000   0.2987
  11.500   1.6412   0.02541   0.01948  -0.1089  0.1528  1.0000  -3.7070   0.0000   0.0000   0.0000   0.2971
  11.600   1.6436   0.02600   0.02006  -0.1081  0.1483  1.0000  -3.7468   0.0000   0.0000   0.0000   0.2964
  11.700   1.6463   0.02659   0.02063  -0.1074  0.1436  1.0000  -3.7873   0.0000   0.0000   0.0000   0.2956
  11.800   1.6491   0.02718   0.02120  -0.1067  0.1393  1.0000  -3.8282   0.0000   0.0000   0.0000   0.2949
  12.000   1.6542   0.02839   0.02239  -0.1053  0.1310  1.0000  -3.9092   0.0000   0.0000   0.0000   0.2935
  12.100   1.6563   0.02903   0.02302  -0.1046  0.1272  1.0000  -3.9503   0.0000   0.0000   0.0000   0.2927
  12.200   1.6590   0.02963   0.02361  -0.1039  0.1232  1.0000  -3.9942   0.0000   0.0000   0.0000   0.2920
  12.300   1.6612   0.03027   0.02425  -0.1032  0.1197  1.0000  -4.0362   0.0000   0.0000   0.0000   0.2913
  12.400   1.6636   0.03090   0.02487  -0.1025  0.1160  1.0000  -4.0794   0.0000   0.0000   0.0000   0.2906
  12.500   1.6657   0.03156   0.02552  -0.1019  0.1126  1.0000  -4.1216   0.0000   0.0000   0.0000   0.2899
  12.600   1.6680   0.03222   0.02617  -0.1012  0.1091  1.0000  -4.1643   0.0000   0.0000   0.0000   0.2892
  12.700   1.6701   0.03290   0.02685  -0.1005  0.1059  1.0000  -4.2072   0.0000   0.0000   0.0000   0.2886
  12.800   1.6721   0.03358   0.02752  -0.0999  0.1025  1.0000  -4.2521   0.0000   0.0000   0.0000   0.2879
  12.900   1.6740   0.03428   0.02822  -0.0992  0.0995  1.0000  -4.2966   0.0000   0.0000   0.0000   0.2872
  13.000   1.6760   0.03499   0.02892  -0.0986  0.0963  1.0000  -4.3413   0.0000   0.0000   0.0000   0.2866
  13.100   1.6778   0.03571   0.02964  -0.0980  0.0935  1.0000  -4.3857   0.0000   0.0000   0.0000   0.2859
  13.200   1.6797   0.03644   0.03036  -0.0974  0.0905  1.0000  -4.4307   0.0000   0.0000   0.0000   0.2853
  13.300   1.6815   0.03719   0.03111  -0.0968  0.0878  1.0000  -4.4756   0.0000   0.0000   0.0000   0.2847
  13.400   1.6834   0.03793   0.03185  -0.0962  0.0849  1.0000  -4.5236   0.0000   0.0000   0.0000   0.2840
  13.500   1.6849   0.03871   0.03263  -0.0956  0.0824  1.0000  -4.5698   0.0000   0.0000   0.0000   0.2834
  13.600   1.6870   0.03945   0.03337  -0.0951  0.0798  1.0000  -4.6199   0.0000   0.0000   0.0000   0.2828
  13.800   1.6903   0.04101   0.03493  -0.0940  0.0751  1.0000  -4.7202   0.0000   0.0000   0.0000   0.2816
  13.900   1.6916   0.04184   0.03576  -0.0934  0.0729  1.0000  -4.7692   0.0000   0.0000   0.0000   0.2810
  14.000   1.6933   0.04263   0.03656  -0.0929  0.0709  1.0000  -4.8199   0.0000   0.0000   0.0000   0.2805
  14.100   1.6951   0.04343   0.03737  -0.0924  0.0689  1.0000  -4.8714   0.0000   0.0000   0.0000   0.2799
  14.200   1.6960   0.04432   0.03826  -0.0919  0.0670  1.0000  -4.9187   0.0000   0.0000   0.0000   0.2793
  14.300   1.6981   0.04510   0.03905  -0.0914  0.0652  1.0000  -4.9719   0.0000   0.0000   0.0000   0.2788
  14.400   1.6996   0.04595   0.03991  -0.0910  0.0634  1.0000  -5.0221   0.0000   0.0000   0.0000   0.2782
  14.500   1.7002   0.04688   0.04084  -0.0905  0.0618  1.0000  -5.0687   0.0000   0.0000   0.0000   0.2777
  14.600   1.7022   0.04768   0.04165  -0.0900  0.0602  1.0000  -5.1220   0.0000   0.0000   0.0000   0.2772
  14.700   1.7035   0.04857   0.04255  -0.0896  0.0586  1.0000  -5.1717   0.0000   0.0000   0.0000   0.2766
  14.800   1.7040   0.04953   0.04351  -0.0891  0.0571  1.0000  -5.2184   0.0000   0.0000   0.0000   0.2761
  14.900   1.7056   0.05039   0.04439  -0.0887  0.0557  1.0000  -5.2700   0.0000   0.0000   0.0000   0.2756
  15.000   1.7070   0.05129   0.04530  -0.0883  0.0543  1.0000  -5.3208   0.0000   0.0000   0.0000   0.2751
  15.100   1.7076   0.05226   0.04628  -0.0879  0.0530  1.0000  -5.3685   0.0000   0.0000   0.0000   0.2746
  15.200   1.7082   0.05325   0.04729  -0.0875  0.0518  1.0000  -5.4156   0.0000   0.0000   0.0000   0.2741
  15.300   1.7099   0.05413   0.04819  -0.0871  0.0505  1.0000  -5.4685   0.0000   0.0000   0.0000   0.2736
  15.400   1.7108   0.05509   0.04916  -0.0868  0.0493  1.0000  -5.5178   0.0000   0.0000   0.0000   0.2732
  15.500   1.7109   0.05616   0.05024  -0.0864  0.0482  1.0000  -5.5630   0.0000   0.0000   0.0000   0.2727
  15.600   1.7116   0.05714   0.05124  -0.0860  0.0471  1.0000  -5.6116   0.0000   0.0000   0.0000   0.2722
  15.700   1.7130   0.05808   0.05220  -0.0857  0.0461  1.0000  -5.6632   0.0000   0.0000   0.0000   0.2718
  15.800   1.7136   0.05909   0.05323  -0.0854  0.0450  1.0000  -5.7114   0.0000   0.0000   0.0000   0.2713
  15.900   1.7136   0.06018   0.05433  -0.0851  0.0440  1.0000  -5.7566   0.0000   0.0000   0.0000   0.2709
  16.000   1.7134   0.06131   0.05548  -0.0847  0.0431  1.0000  -5.8008   0.0000   0.0000   0.0000   0.2705
  16.100   1.7149   0.06226   0.05645  -0.0845  0.0422  1.0000  -5.8534   0.0000   0.0000   0.0000   0.2701
  16.200   1.7155   0.06330   0.05751  -0.0842  0.0412  1.0000  -5.9019   0.0000   0.0000   0.0000   0.2696
  16.300   1.7153   0.06444   0.05867  -0.0839  0.0403  1.0000  -5.9468   0.0000   0.0000   0.0000   0.2692
  16.400   1.7146   0.06565   0.05990  -0.0836  0.0395  1.0000  -5.9886   0.0000   0.0000   0.0000   0.2689
  16.500   1.7151   0.06673   0.06100  -0.0834  0.0387  1.0000  -6.0368   0.0000   0.0000   0.0000   0.2685
  16.600   1.7159   0.06779   0.06208  -0.0832  0.0378  1.0000  -6.0863   0.0000   0.0000   0.0000   0.2681
  16.700   1.7159   0.06893   0.06324  -0.0830  0.0370  1.0000  -6.1323   0.0000   0.0000   0.0000   0.2677
  16.800   1.7151   0.07016   0.06450  -0.0828  0.0362  1.0000  -6.1742   0.0000   0.0000   0.0000   0.2674
  16.900   1.7138   0.07147   0.06582  -0.0825  0.0355  1.0000  -6.2131   0.0000   0.0000   0.0000   0.2670
  17.000   1.7139   0.07263   0.06700  -0.0824  0.0348  1.0000  -6.2592   0.0000   0.0000   0.0000   0.2667
  17.100   1.7142   0.07375   0.06816  -0.0822  0.0341  1.0000  -6.3068   0.0000   0.0000   0.0000   0.2663
  17.200   1.7139   0.07496   0.06939  -0.0821  0.0334  1.0000  -6.3511   0.0000   0.0000   0.0000   0.2660
  17.300   1.7128   0.07627   0.07072  -0.0819  0.0327  1.0000  -6.3916   0.0000   0.0000   0.0000   0.2657
  17.400   1.7113   0.07765   0.07212  -0.0818  0.0321  1.0000  -6.4294   0.0000   0.0000   0.0000   0.2654
  17.500   1.7095   0.07908   0.07357  -0.0817  0.0315  1.0000  -6.4654   0.0000   0.0000   0.0000   0.2651
  17.600   1.7100   0.08021   0.07473  -0.0816  0.0309  1.0000  -6.5141   0.0000   0.0000   0.0000   0.2648
  17.700   1.7096   0.08148   0.07603  -0.0815  0.0302  1.0000  -6.5576   0.0000   0.0000   0.0000   0.2645
  17.800   1.7086   0.08281   0.07739  -0.0814  0.0296  1.0000  -6.5983   0.0000   0.0000   0.0000   0.2643
  17.900   1.7071   0.08421   0.07882  -0.0814  0.0291  1.0000  -6.6363   0.0000   0.0000   0.0000   0.2640
  18.000   1.7049   0.08572   0.08034  -0.0813  0.0286  1.0000  -6.6698   0.0000   0.0000   0.0000   0.2638
  18.200   1.7016   0.08858   0.08326  -0.0813  0.0276  1.0000  -6.7432   0.0000   0.0000   0.0000   0.2634
  18.300   1.7011   0.08988   0.08460  -0.0813  0.0271  1.0000  -6.7859   0.0000   0.0000   0.0000   0.2631
  18.400   1.6998   0.09129   0.08604  -0.0814  0.0267  1.0000  -6.8243   0.0000   0.0000   0.0000   0.2629
  18.500   1.6982   0.09275   0.08753  -0.0814  0.0262  1.0000  -6.8609   0.0000   0.0000   0.0000   0.2628
  18.600   1.6962   0.09427   0.08908  -0.0815  0.0258  1.0000  -6.8951   0.0000   0.0000   0.0000   0.2626
  18.700   1.6936   0.09588   0.09071  -0.0816  0.0254  1.0000  -6.9259   0.0000   0.0000   0.0000   0.2625
  18.800   1.6904   0.09758   0.09243  -0.0817  0.0250  1.0000  -6.9531   0.0000   0.0000   0.0000   0.2624
  18.900   1.6875   0.09925   0.09413  -0.0819  0.0247  1.0000  -6.9814   0.0000   0.0000   0.0000   0.2623
  19.000   1.6870   0.10060   0.09551  -0.0820  0.0243  1.0000  -7.0232   0.0000   0.0000   0.0000   0.2621
  19.100   1.6857   0.10205   0.09700  -0.0821  0.0239  1.0000  -7.0609   0.0000   0.0000   0.0000   0.2620
  19.200   1.6842   0.10353   0.09851  -0.0823  0.0236  1.0000  -7.0970   0.0000   0.0000   0.0000   0.2619
  19.300   1.6821   0.10509   0.10011  -0.0825  0.0232  1.0000  -7.1294   0.0000   0.0000   0.0000   0.2618
  19.400   1.6798   0.10669   0.10174  -0.0827  0.0229  1.0000  -7.1610   0.0000   0.0000   0.0000   0.2617
  19.500   1.6771   0.10836   0.10344  -0.0830  0.0226  1.0000  -7.1898   0.0000   0.0000   0.0000   0.2617
  19.600   1.6740   0.11008   0.10519  -0.0833  0.0223  1.0000  -7.2160   0.0000   0.0000   0.0000   0.2617
  19.700   1.6704   0.11191   0.10704  -0.0836  0.0220  1.0000  -7.2383   0.0000   0.0000   0.0000   0.2617
  19.800   1.6661   0.11384   0.10900  -0.0840  0.0218  1.0000  -7.2557   0.0000   0.0000   0.0000   0.2618
  19.900   1.6640   0.11547   0.11067  -0.0843  0.0215  1.0000  -7.2859   0.0000   0.0000   0.0000   0.2618
  20.000   1.6627   0.11697   0.11221  -0.0847  0.0213  1.0000  -7.3216   0.0000   0.0000   0.0000   0.2618


