xflr5 v6.57

 Calculated polar for: wine

 1 1 Reynolds number fixed          Mach number fixed         

 xtrf =   1.000 (top)        1.000 (bottom)
 Mach =   0.000     Re =     0.160 e 6     Ncrit =   9.000

  alpha     CL        CD       CDp       Cm    Top Xtr Bot Xtr   Cpmin    Chinge    XCp    
 ------- -------- --------- --------- -------- ------- ------- -------- --------- ---------
  -9.700  -0.0830   0.09789   0.09380  -0.0998  0.9456  0.0761  -1.5030   0.0000   0.0000   0.0000  -1.0360
  -9.600  -0.0768   0.09684   0.09274  -0.1000  0.9435  0.0768  -1.4779   0.0000   0.0000   0.0000  -1.1418
  -9.500  -0.0715   0.09569   0.09159  -0.1006  0.9418  0.0777  -1.4644   0.0000   0.0000   0.0000  -1.2520
  -9.400  -0.0690   0.09463   0.09052  -0.1011  0.9388  0.0788  -1.4644   0.0000   0.0000   0.0000  -1.3133
  -9.300  -0.0691   0.09328   0.08917  -0.1027  0.9363  0.0803  -1.4942   0.0000   0.0000   0.0000  -1.3343
  -9.000  -0.0670   0.08917   0.08506  -0.1058  0.9286  0.0823  -1.5478   0.0000   0.0000   0.0000  -1.4247
  -8.900  -0.0611   0.08834   0.08424  -0.1053  0.9261  0.0829  -1.5135   0.0000   0.0000   0.0000  -1.5797
  -8.800  -0.0561   0.08743   0.08331  -0.1053  0.9241  0.0838  -1.4915   0.0000   0.0000   0.0000  -1.7386
  -8.700  -0.0526   0.08641   0.08229  -0.1056  0.9222  0.0849  -1.4823   0.0000   0.0000   0.0000  -1.8769
  -8.600  -0.0518   0.08534   0.08122  -0.1064  0.9190  0.0862  -1.4916   0.0000   0.0000   0.0000  -1.9241
  -8.300  -0.0548   0.08115   0.07705  -0.1101  0.9107  0.0892  -1.5689   0.0000   0.0000   0.0000  -1.8698
  -8.200  -0.0470   0.08051   0.07640  -0.1093  0.9093  0.0901  -1.5200   0.0000   0.0000   0.0000  -2.1985
  -8.100  -0.0425   0.07974   0.07563  -0.1092  0.9071  0.0914  -1.4962   0.0000   0.0000   0.0000  -2.4549
  -8.000  -0.0413   0.07873   0.07462  -0.1099  0.9043  0.0931  -1.4996   0.0000   0.0000   0.0000  -2.5531
  -7.900  -0.0627   0.07621   0.07215  -0.1163  0.8984  0.0953  -1.6788   0.0000   0.0000   0.0000  -1.6937
  -7.400  -0.0354   0.07224   0.06816  -0.1137  0.8892  0.1003  -1.5315   0.0000   0.0000   0.0000  -3.1064
  -7.200   0.0271   0.05640   0.05248  -0.1129  0.8713  0.1088  -1.3069   0.0000   0.0000   0.0000   4.5580
  -6.700  -0.0735   0.04122   0.03586  -0.1465  0.8654  0.0690  -2.5985   0.0000   0.0000   0.0000  -1.8139
  -6.600  -0.0639   0.04076   0.03545  -0.1465  0.8640  0.0694  -2.5392   0.0000   0.0000   0.0000  -2.1206
  -6.500  -0.0533   0.04058   0.03532  -0.1464  0.8630  0.0702  -2.4679   0.0000   0.0000   0.0000  -2.5909
  -6.400  -0.0381   0.04309   0.03811  -0.1452  0.8624  0.0774  -2.2714   0.0000   0.0000   0.0000  -3.6911
  -6.300  -0.0472   0.03623   0.03040  -0.1472  0.8577  0.0668  -2.5811   0.0000   0.0000   0.0000  -2.9778
  -6.200  -0.0395   0.03478   0.02872  -0.1476  0.8560  0.0669  -2.5865   0.0000   0.0000   0.0000  -3.6131
  -6.100  -0.0303   0.03338   0.02708  -0.1480  0.8548  0.0670  -2.5853   0.0000   0.0000   0.0000  -4.8050
  -6.000  -0.0200   0.03207   0.02552  -0.1485  0.8538  0.0671  -2.5775   0.0000   0.0000   0.0000  -7.4215
  -5.900  -0.0161   0.03144   0.02473  -0.1478  0.8505  0.0672  -2.5709   0.0000   0.0000   0.0000  -9.2523
  -5.800  -0.0076   0.03053   0.02361  -0.1478  0.8485  0.0673  -2.5567   0.0000   0.0000   0.0000  -19.9162
  -5.700   0.0028   0.02959   0.02245  -0.1480  0.8472  0.0676  -2.5406   0.0000   0.0000   0.0000  54.2203
  -5.600   0.0142   0.02873   0.02134  -0.1482  0.8462  0.0681  -2.5244   0.0000   0.0000   0.0000  10.9959
  -5.500   0.0262   0.02795   0.02031  -0.1484  0.8453  0.0688  -2.5032   0.0000   0.0000   0.0000   6.0940
  -5.400   0.0312   0.02780   0.02024  -0.1477  0.8421  0.0695  -2.4628   0.0000   0.0000   0.0000   5.1328
  -5.300   0.0405   0.02759   0.02008  -0.1476  0.8402  0.0705  -2.4096   0.0000   0.0000   0.0000   4.0023
  -5.200   0.0516   0.02724   0.01968  -0.1477  0.8389  0.0718  -2.3625   0.0000   0.0000   0.0000   3.1982
  -5.100   0.0635   0.02675   0.01904  -0.1478  0.8378  0.0732  -2.3247   0.0000   0.0000   0.0000   2.6455
  -5.000   0.0760   0.02619   0.01826  -0.1480  0.8370  0.0745  -2.2935   0.0000   0.0000   0.0000   2.2525
  -4.900   0.0839   0.02590   0.01789  -0.1476  0.8346  0.0753  -2.2618   0.0000   0.0000   0.0000   2.0584
  -4.800   0.0917   0.02569   0.01771  -0.1473  0.8321  0.0762  -2.2196   0.0000   0.0000   0.0000   1.9006
  -4.700   0.1024   0.02539   0.01742  -0.1472  0.8306  0.0774  -2.1713   0.0000   0.0000   0.0000   1.7258
  -4.600   0.1143   0.02504   0.01701  -0.1473  0.8295  0.0789  -2.1246   0.0000   0.0000   0.0000   1.5724
  -4.500   0.1270   0.02469   0.01650  -0.1475  0.8285  0.0810  -2.0822   0.0000   0.0000   0.0000   1.4414
  -4.400   0.1394   0.02429   0.01611  -0.1477  0.8278  0.0828  -2.0336   0.0000   0.0000   0.0000   1.3362
  -4.300   0.1442   0.02439   0.01624  -0.1469  0.8242  0.0842  -2.0013   0.0000   0.0000   0.0000   1.2944
  -4.200   0.1543   0.02420   0.01602  -0.1468  0.8224  0.0862  -1.9621   0.0000   0.0000   0.0000   1.2243
  -4.100   0.1661   0.02392   0.01561  -0.1468  0.8211  0.0884  -1.9269   0.0000   0.0000   0.0000   1.1545
  -4.000   0.1780   0.02356   0.01533  -0.1469  0.8201  0.0903  -1.8784   0.0000   0.0000   0.0000   1.0944
  -3.900   0.1906   0.02329   0.01504  -0.1471  0.8193  0.0930  -1.8314   0.0000   0.0000   0.0000   1.0392
  -3.800   0.2035   0.02298   0.01467  -0.1472  0.8185  0.0961  -1.7874   0.0000   0.0000   0.0000   0.9896
  -3.700   0.2067   0.02318   0.01495  -0.1463  0.8143  0.0978  -1.7575   0.0000   0.0000   0.0000   0.9732
  -3.600   0.2177   0.02301   0.01476  -0.1463  0.8127  0.1010  -1.7142   0.0000   0.0000   0.0000   0.9361
  -3.500   0.2296   0.02274   0.01448  -0.1463  0.8116  0.1043  -1.6701   0.0000   0.0000   0.0000   0.9005
  -3.400   0.2420   0.02250   0.01426  -0.1465  0.8106  0.1081  -1.6220   0.0000   0.0000   0.0000   0.8674
  -3.300   0.2547   0.02222   0.01399  -0.1467  0.8099  0.1124  -1.5748   0.0000   0.0000   0.0000   0.8369
  -3.200   0.2604   0.02237   0.01417  -0.1460  0.8065  0.1159  -1.5435   0.0000   0.0000   0.0000   0.8214
  -3.100   0.2701   0.02226   0.01408  -0.1459  0.8044  0.1204  -1.5075   0.0000   0.0000   0.0000   0.8000
  -3.000   0.2816   0.02209   0.01391  -0.1459  0.8030  0.1262  -1.4677   0.0000   0.0000   0.0000   0.7772
  -2.900   0.2938   0.02185   0.01372  -0.1460  0.8020  0.1325  -1.4246   0.0000   0.0000   0.0000   0.7556
  -2.800   0.3064   0.02160   0.01351  -0.1462  0.8011  0.1402  -1.3815   0.0000   0.0000   0.0000   0.7351
  -2.700   0.3194   0.02134   0.01329  -0.1465  0.8004  0.1493  -1.3380   0.0000   0.0000   0.0000   0.7158
  -2.600   0.3234   0.02160   0.01360  -0.1457  0.7962  0.1561  -1.3121   0.0000   0.0000   0.0000   0.7074
  -2.500   0.3342   0.02147   0.01352  -0.1457  0.7945  0.1674  -1.2723   0.0000   0.0000   0.0000   0.6923
  -2.300   0.3588   0.02101   0.01321  -0.1460  0.7923  0.1996  -1.1868   0.0000   0.0000   0.0000   0.6625
  -2.200   0.3717   0.02075   0.01303  -0.1463  0.7915  0.2212  -1.1421   0.0000   0.0000   0.0000   0.6486
  -2.100   0.3848   0.02049   0.01286  -0.1466  0.7908  0.2468  -1.0968   0.0000   0.0000   0.0000   0.6355
  -2.000   0.3879   0.02083   0.01332  -0.1458  0.7861  0.2632  -1.0715   0.0000   0.0000   0.0000   0.6302
  -1.900   0.3993   0.02068   0.01326  -0.1459  0.7846  0.2915  -1.0324   0.0000   0.0000   0.0000   0.6193
  -1.800   0.4115   0.02047   0.01317  -0.1460  0.7835  0.3225  -0.9915   0.0000   0.0000   0.0000   0.6085
  -1.700   0.4241   0.02024   0.01306  -0.1462  0.7826  0.3566  -0.9498   0.0000   0.0000   0.0000   0.5981
  -1.600   0.4369   0.02001   0.01294  -0.1464  0.7818  0.3931  -0.9078   0.0000   0.0000   0.0000   0.5881
  -1.400   0.4517   0.02022   0.01340  -0.1456  0.7758  0.4562  -0.8444   0.0000   0.0000   0.0000   0.5748
  -1.300   0.4631   0.02007   0.01337  -0.1455  0.7745  0.4953  -0.8054   0.0000   0.0000   0.0000   0.5664
  -1.200   0.4748   0.01988   0.01331  -0.1454  0.7735  0.5356  -0.7971   0.0000   0.0000   0.0000   0.5582
  -1.100   0.4866   0.01968   0.01323  -0.1452  0.7727  0.5758  -0.8056   0.0000   0.0000   0.0000   0.5501
  -1.000   0.4983   0.01948   0.01314  -0.1450  0.7720  0.6155  -0.8142   0.0000   0.0000   0.0000   0.5424
  -0.900   0.5006   0.01991   0.01369  -0.1438  0.7672  0.6430  -0.8153   0.0000   0.0000   0.0000   0.5386
  -0.800   0.5100   0.01984   0.01372  -0.1433  0.7655  0.6787  -0.8223   0.0000   0.0000   0.0000   0.5319
  -0.700   0.5202   0.01971   0.01366  -0.1427  0.7644  0.7133  -0.8301   0.0000   0.0000   0.0000   0.5251
  -0.600   0.5304   0.01955   0.01357  -0.1420  0.7634  0.7463  -0.8381   0.0000   0.0000   0.0000   0.5184
  -0.500   0.5404   0.01938   0.01344  -0.1413  0.7626  0.7777  -0.8460   0.0000   0.0000   0.0000   0.5118
  -0.300   0.5488   0.01972   0.01393  -0.1386  0.7563  0.8325  -0.8530   0.0000   0.0000   0.0000   0.5026
  -0.200   0.5566   0.01957   0.01382  -0.1374  0.7550  0.8651  -0.8597   0.0000   0.0000   0.0000   0.4967
  -0.100   0.5661   0.01936   0.01364  -0.1365  0.7540  0.9057  -0.8676   0.0000   0.0000   0.0000   0.4907
   0.000   0.5875   0.01908   0.01335  -0.1381  0.7533  1.0000  -0.8822   0.0000   0.0000   0.0000   0.4844
   0.100   0.6024   0.01896   0.01316  -0.1387  0.7526  1.0000  -0.8932   0.0000   0.0000   0.0000   0.4793
   0.200   0.6056   0.01951   0.01370  -0.1380  0.7475  1.0000  -0.8950   0.0000   0.0000   0.0000   0.4768
   0.300   0.6182   0.01950   0.01363  -0.1383  0.7459  1.0000  -0.9045   0.0000   0.0000   0.0000   0.4724
   0.400   0.6319   0.01942   0.01349  -0.1386  0.7448  1.0000  -0.9149   0.0000   0.0000   0.0000   0.4680
   0.500   0.6461   0.01931   0.01332  -0.1390  0.7439  1.0000  -0.9260   0.0000   0.0000   0.0000   0.4637
   0.600   0.6604   0.01919   0.01313  -0.1394  0.7431  1.0000  -0.9373   0.0000   0.0000   0.0000   0.4594
   0.800   0.6762   0.01969   0.01359  -0.1389  0.7366  1.0000  -0.9498   0.0000   0.0000   0.0000   0.4533
   0.900   0.6894   0.01962   0.01347  -0.1391  0.7353  1.0000  -0.9605   0.0000   0.0000   0.0000   0.4496
   1.000   0.7032   0.01951   0.01331  -0.1394  0.7343  1.0000  -0.9718   0.0000   0.0000   0.0000   0.4459
   1.100   0.7173   0.01938   0.01313  -0.1398  0.7335  1.0000  -0.9833   0.0000   0.0000   0.0000   0.4423
   1.200   0.7315   0.01925   0.01294  -0.1401  0.7327  1.0000  -0.9950   0.0000   0.0000   0.0000   0.4389
   1.300   0.7336   0.01983   0.01354  -0.1392  0.7273  1.0000  -0.9972   0.0000   0.0000   0.0000   0.4369
   1.400   0.7463   0.01977   0.01345  -0.1393  0.7258  1.0000  -1.0080   0.0000   0.0000   0.0000   0.4337
   1.500   0.7599   0.01966   0.01330  -0.1396  0.7247  1.0000  -1.0197   0.0000   0.0000   0.0000   0.4306
   1.600   0.7739   0.01953   0.01312  -0.1399  0.7237  1.0000  -1.0318   0.0000   0.0000   0.0000   0.4275
   1.700   0.7880   0.01939   0.01294  -0.1403  0.7229  1.0000  -1.0441   0.0000   0.0000   0.0000   0.4245
   1.800   0.7910   0.01991   0.01348  -0.1393  0.7179  1.0000  -1.0474   0.0000   0.0000   0.0000   0.4226
   1.900   0.8032   0.01987   0.01341  -0.1394  0.7161  1.0000  -1.0585   0.0000   0.0000   0.0000   0.4199
   2.000   0.8166   0.01975   0.01326  -0.1397  0.7149  1.0000  -1.0708   0.0000   0.0000   0.0000   0.4172
   2.100   0.8305   0.01962   0.01309  -0.1400  0.7139  1.0000  -1.0835   0.0000   0.0000   0.0000   0.4145
   2.200   0.8447   0.01946   0.01290  -0.1403  0.7130  1.0000  -1.0967   0.0000   0.0000   0.0000   0.4119
   2.400   0.8604   0.01989   0.01333  -0.1395  0.7063  1.0000  -1.1129   0.0000   0.0000   0.0000   0.4077
   2.500   0.8737   0.01977   0.01318  -0.1397  0.7049  1.0000  -1.1258   0.0000   0.0000   0.0000   0.4053
   2.600   0.8876   0.01962   0.01300  -0.1400  0.7038  1.0000  -1.1393   0.0000   0.0000   0.0000   0.4030
   2.700   0.9019   0.01945   0.01280  -0.1403  0.7028  1.0000  -1.1534   0.0000   0.0000   0.0000   0.4007
   2.800   0.9062   0.01986   0.01324  -0.1395  0.6983  1.0000  -1.1592   0.0000   0.0000   0.0000   0.3989
   2.900   0.9178   0.01984   0.01320  -0.1395  0.6962  1.0000  -1.1712   0.0000   0.0000   0.0000   0.3969
   3.000   0.9311   0.01972   0.01305  -0.1397  0.6947  1.0000  -1.1846   0.0000   0.0000   0.0000   0.3948
   3.100   0.9451   0.01955   0.01286  -0.1400  0.6935  1.0000  -1.1991   0.0000   0.0000   0.0000   0.3927
   3.200   0.9596   0.01937   0.01264  -0.1404  0.6925  1.0000  -1.2141   0.0000   0.0000   0.0000   0.3907
   3.300   0.9635   0.01978   0.01309  -0.1395  0.6877  1.0000  -1.2202   0.0000   0.0000   0.0000   0.3890
   3.400   0.9753   0.01974   0.01304  -0.1395  0.6856  1.0000  -1.2333   0.0000   0.0000   0.0000   0.3872
   3.500   0.9889   0.01960   0.01287  -0.1397  0.6841  1.0000  -1.2479   0.0000   0.0000   0.0000   0.3853
   3.600   1.0031   0.01942   0.01267  -0.1401  0.6829  1.0000  -1.2635   0.0000   0.0000   0.0000   0.3835
   3.700   1.0177   0.01924   0.01246  -0.1404  0.6818  1.0000  -1.2796   0.0000   0.0000   0.0000   0.3817
   3.800   1.0205   0.01968   0.01295  -0.1394  0.6766  1.0000  -1.2856   0.0000   0.0000   0.0000   0.3802
   3.900   1.0333   0.01958   0.01283  -0.1395  0.6747  1.0000  -1.3008   0.0000   0.0000   0.0000   0.3785
   4.000   1.0472   0.01941   0.01263  -0.1398  0.6732  1.0000  -1.3174   0.0000   0.0000   0.0000   0.3768
   4.100   1.0620   0.01921   0.01240  -0.1402  0.6720  1.0000  -1.3349   0.0000   0.0000   0.0000   0.3752
   4.200   1.0664   0.01955   0.01279  -0.1393  0.6673  1.0000  -1.3434   0.0000   0.0000   0.0000   0.3736
   4.300   1.0781   0.01949   0.01274  -0.1393  0.6649  1.0000  -1.3587   0.0000   0.0000   0.0000   0.3721
   4.400   1.0918   0.01933   0.01256  -0.1395  0.6632  1.0000  -1.3764   0.0000   0.0000   0.0000   0.3706
   4.500   1.1065   0.01914   0.01233  -0.1399  0.6619  1.0000  -1.3954   0.0000   0.0000   0.0000   0.3691
   4.600   1.1122   0.01940   0.01263  -0.1392  0.6575  1.0000  -1.4063   0.0000   0.0000   0.0000   0.3676
   4.700   1.1232   0.01938   0.01261  -0.1391  0.6548  1.0000  -1.4226   0.0000   0.0000   0.0000   0.3662
   4.800   1.1368   0.01923   0.01244  -0.1393  0.6529  1.0000  -1.4418   0.0000   0.0000   0.0000   0.3648
   4.900   1.1514   0.01903   0.01221  -0.1397  0.6514  1.0000  -1.4622   0.0000   0.0000   0.0000   0.3634
   5.000   1.1570   0.01928   0.01252  -0.1389  0.6469  1.0000  -1.4739   0.0000   0.0000   0.0000   0.3620
   5.100   1.1682   0.01925   0.01248  -0.1389  0.6441  1.0000  -1.4915   0.0000   0.0000   0.0000   0.3606
   5.200   1.1819   0.01909   0.01230  -0.1391  0.6421  1.0000  -1.5123   0.0000   0.0000   0.0000   0.3593
   5.300   1.1969   0.01889   0.01206  -0.1396  0.6405  1.0000  -1.5349   0.0000   0.0000   0.0000   0.3581
   5.400   1.2010   0.01919   0.01242  -0.1385  0.6354  1.0000  -1.5468   0.0000   0.0000   0.0000   0.3567
   5.500   1.2132   0.01909   0.01232  -0.1386  0.6328  1.0000  -1.5681   0.0000   0.0000   0.0000   0.3554
   5.600   1.2276   0.01891   0.01211  -0.1390  0.6308  1.0000  -1.5923   0.0000   0.0000   0.0000   0.3542
   5.700   1.2348   0.01906   0.01231  -0.1384  0.6267  1.0000  -1.6087   0.0000   0.0000   0.0000   0.3529
   5.800   1.2450   0.01906   0.01231  -0.1382  0.6232  1.0000  -1.6291   0.0000   0.0000   0.0000   0.3517
   5.900   1.2588   0.01890   0.01213  -0.1384  0.6208  1.0000  -1.6539   0.0000   0.0000   0.0000   0.3505
   6.000   1.2684   0.01894   0.01218  -0.1381  0.6173  1.0000  -1.6741   0.0000   0.0000   0.0000   0.3493
   6.100   1.2770   0.01901   0.01227  -0.1377  0.6132  1.0000  -1.6938   0.0000   0.0000   0.0000   0.3481
   6.200   1.2902   0.01887   0.01211  -0.1379  0.6105  1.0000  -1.7195   0.0000   0.0000   0.0000   0.3470
   6.300   1.3000   0.01890   0.01214  -0.1376  0.6068  1.0000  -1.7416   0.0000   0.0000   0.0000   0.3458
   6.400   1.3085   0.01897   0.01225  -0.1372  0.6026  1.0000  -1.7621   0.0000   0.0000   0.0000   0.3447
   6.500   1.3216   0.01884   0.01210  -0.1373  0.5996  1.0000  -1.7911   0.0000   0.0000   0.0000   0.3436
   6.600   1.3299   0.01893   0.01220  -0.1369  0.5954  1.0000  -1.8153   0.0000   0.0000   0.0000   0.3424
   6.700   1.3394   0.01895   0.01224  -0.1365  0.5912  1.0000  -1.8419   0.0000   0.0000   0.0000   0.3413
   6.800   1.3531   0.01882   0.01207  -0.1368  0.5882  1.0000  -1.8757   0.0000   0.0000   0.0000   0.3403
   6.900   1.3589   0.01899   0.01229  -0.1360  0.5832  1.0000  -1.8982   0.0000   0.0000   0.0000   0.3391
   7.000   1.3699   0.01896   0.01225  -0.1359  0.5793  1.0000  -1.9306   0.0000   0.0000   0.0000   0.3381
   7.100   1.3805   0.01896   0.01225  -0.1357  0.5754  1.0000  -1.9629   0.0000   0.0000   0.0000   0.3370
   7.200   1.3878   0.01907   0.01239  -0.1351  0.5705  1.0000  -1.9902   0.0000   0.0000   0.0000   0.3359
   7.300   1.4008   0.01898   0.01226  -0.1352  0.5669  1.0000  -2.0276   0.0000   0.0000   0.0000   0.3350
   7.400   1.4064   0.01916   0.01249  -0.1344  0.5616  1.0000  -2.0534   0.0000   0.0000   0.0000   0.3338
   7.500   1.4173   0.01914   0.01245  -0.1343  0.5574  1.0000  -2.0885   0.0000   0.0000   0.0000   0.3328
   7.600   1.4250   0.01925   0.01258  -0.1337  0.5525  1.0000  -2.1193   0.0000   0.0000   0.0000   0.3317
   7.700   1.4340   0.01930   0.01263  -0.1333  0.5476  1.0000  -2.1529   0.0000   0.0000   0.0000   0.3307
   7.800   1.4432   0.01936   0.01268  -0.1329  0.5429  1.0000  -2.1868   0.0000   0.0000   0.0000   0.3297
   7.900   1.4505   0.01947   0.01281  -0.1323  0.5375  1.0000  -2.2177   0.0000   0.0000   0.0000   0.3286
   8.000   1.4604   0.01951   0.01283  -0.1320  0.5329  1.0000  -2.2544   0.0000   0.0000   0.0000   0.3277
   8.100   1.4666   0.01966   0.01301  -0.1312  0.5272  1.0000  -2.2849   0.0000   0.0000   0.0000   0.3266
   8.200   1.4765   0.01970   0.01303  -0.1310  0.5225  1.0000  -2.3226   0.0000   0.0000   0.0000   0.3256
   8.300   1.4820   0.01988   0.01324  -0.1301  0.5166  1.0000  -2.3521   0.0000   0.0000   0.0000   0.3245
   8.400   1.4915   0.01995   0.01328  -0.1298  0.5117  1.0000  -2.3901   0.0000   0.0000   0.0000   0.3236
   8.500   1.4967   0.02013   0.01349  -0.1288  0.5057  1.0000  -2.4207   0.0000   0.0000   0.0000   0.3225
   8.600   1.5052   0.02023   0.01357  -0.1284  0.5006  1.0000  -2.4581   0.0000   0.0000   0.0000   0.3216
   8.700   1.5104   0.02042   0.01379  -0.1275  0.4945  1.0000  -2.4891   0.0000   0.0000   0.0000   0.3205
   8.800   1.5177   0.02056   0.01392  -0.1268  0.4890  1.0000  -2.5252   0.0000   0.0000   0.0000   0.3195
   8.900   1.5232   0.02075   0.01410  -0.1259  0.4830  1.0000  -2.5642   0.0000   0.0000   0.0000   0.3184
   9.000   1.5289   0.02093   0.01429  -0.1251  0.4771  1.0000  -2.6039   0.0000   0.0000   0.0000   0.3174
   9.100   1.5347   0.02110   0.01444  -0.1242  0.4712  1.0000  -2.6443   0.0000   0.0000   0.0000   0.3164
   9.200   1.5379   0.02133   0.01469  -0.1230  0.4651  1.0000  -2.6791   0.0000   0.0000   0.0000   0.3152
   9.300   1.5445   0.02150   0.01481  -0.1222  0.4593  1.0000  -2.7240   0.0000   0.0000   0.0000   0.3142
   9.400   1.5462   0.02179   0.01513  -0.1208  0.4529  1.0000  -2.7563   0.0000   0.0000   0.0000   0.3130
   9.500   1.5516   0.02200   0.01531  -0.1200  0.4470  1.0000  -2.7985   0.0000   0.0000   0.0000   0.3120
   9.600   1.5540   0.02231   0.01563  -0.1187  0.4406  1.0000  -2.8328   0.0000   0.0000   0.0000   0.3109
   9.700   1.5577   0.02259   0.01591  -0.1176  0.4345  1.0000  -2.8708   0.0000   0.0000   0.0000   0.3099
   9.800   1.5613   0.02288   0.01618  -0.1166  0.4283  1.0000  -2.9089   0.0000   0.0000   0.0000   0.3088
   9.900   1.5636   0.02323   0.01655  -0.1154  0.4220  1.0000  -2.9430   0.0000   0.0000   0.0000   0.3078
  10.100   1.5692   0.02393   0.01723  -0.1132  0.4095  1.0000  -3.0150   0.0000   0.0000   0.0000   0.3058
  10.200   1.5723   0.02429   0.01757  -0.1122  0.4034  1.0000  -3.0521   0.0000   0.0000   0.0000   0.3048
  10.300   1.5744   0.02469   0.01797  -0.1110  0.3971  1.0000  -3.0865   0.0000   0.0000   0.0000   0.3038
  10.400   1.5763   0.02512   0.01841  -0.1099  0.3907  1.0000  -3.1204   0.0000   0.0000   0.0000   0.3028
  10.500   1.5792   0.02552   0.01876  -0.1089  0.3847  1.0000  -3.1574   0.0000   0.0000   0.0000   0.3019
  10.600   1.5801   0.02601   0.01929  -0.1078  0.3781  1.0000  -3.1884   0.0000   0.0000   0.0000   0.3009
  10.700   1.5823   0.02647   0.01972  -0.1067  0.3720  1.0000  -3.2241   0.0000   0.0000   0.0000   0.3000
  10.800   1.5836   0.02697   0.02023  -0.1057  0.3655  1.0000  -3.2587   0.0000   0.0000   0.0000   0.2990
  10.900   1.5849   0.02750   0.02076  -0.1046  0.3591  1.0000  -3.2930   0.0000   0.0000   0.0000   0.2981
  11.000   1.5868   0.02800   0.02122  -0.1036  0.3532  1.0000  -3.3295   0.0000   0.0000   0.0000   0.2972
  11.100   1.5873   0.02859   0.02184  -0.1025  0.3465  1.0000  -3.3617   0.0000   0.0000   0.0000   0.2963
  11.200   1.5885   0.02916   0.02239  -0.1015  0.3404  1.0000  -3.3960   0.0000   0.0000   0.0000   0.2955
  11.300   1.5893   0.02975   0.02298  -0.1005  0.3340  1.0000  -3.4294   0.0000   0.0000   0.0000   0.2946
  11.400   1.5900   0.03038   0.02362  -0.0995  0.3276  1.0000  -3.4620   0.0000   0.0000   0.0000   0.2937
  11.500   1.5908   0.03100   0.02420  -0.0985  0.3216  1.0000  -3.4956   0.0000   0.0000   0.0000   0.2929
  11.600   1.5910   0.03168   0.02489  -0.0976  0.3150  1.0000  -3.5270   0.0000   0.0000   0.0000   0.2921
  11.700   1.5914   0.03236   0.02556  -0.0966  0.3088  1.0000  -3.5591   0.0000   0.0000   0.0000   0.2913
  11.800   1.5916   0.03305   0.02623  -0.0957  0.3028  1.0000  -3.5910   0.0000   0.0000   0.0000   0.2904
  11.900   1.5917   0.03378   0.02698  -0.0947  0.2963  1.0000  -3.6218   0.0000   0.0000   0.0000   0.2897
  12.000   1.5917   0.03451   0.02769  -0.0938  0.2904  1.0000  -3.6529   0.0000   0.0000   0.0000   0.2889
  12.100   1.5914   0.03528   0.02845  -0.0929  0.2842  1.0000  -3.6830   0.0000   0.0000   0.0000   0.2881
  12.200   1.5912   0.03606   0.02924  -0.0920  0.2779  1.0000  -3.7132   0.0000   0.0000   0.0000   0.2873
  12.300   1.5907   0.03686   0.03000  -0.0911  0.2723  1.0000  -3.7429   0.0000   0.0000   0.0000   0.2866
  12.400   1.5903   0.03769   0.03085  -0.0903  0.2659  1.0000  -3.7723   0.0000   0.0000   0.0000   0.2859
  12.500   1.5897   0.03852   0.03168  -0.0894  0.2600  1.0000  -3.8031   0.0000   0.0000   0.0000   0.2851
  12.600   1.5888   0.03939   0.03252  -0.0885  0.2544  1.0000  -3.8332   0.0000   0.0000   0.0000   0.2844
  12.700   1.5881   0.04026   0.03341  -0.0877  0.2482  1.0000  -3.8637   0.0000   0.0000   0.0000   0.2837
  12.800   1.5871   0.04117   0.03428  -0.0869  0.2428  1.0000  -3.8934   0.0000   0.0000   0.0000   0.2830
  12.900   1.5862   0.04209   0.03521  -0.0861  0.2369  1.0000  -3.9231   0.0000   0.0000   0.0000   0.2824
  13.000   1.5854   0.04303   0.03614  -0.0854  0.2312  1.0000  -3.9529   0.0000   0.0000   0.0000   0.2817
  13.100   1.5840   0.04400   0.03709  -0.0846  0.2260  1.0000  -3.9814   0.0000   0.0000   0.0000   0.2810
  13.200   1.5832   0.04497   0.03808  -0.0839  0.2201  1.0000  -4.0111   0.0000   0.0000   0.0000   0.2804
  13.300   1.5819   0.04598   0.03906  -0.0832  0.2150  1.0000  -4.0394   0.0000   0.0000   0.0000   0.2798
  13.400   1.5807   0.04701   0.04009  -0.0826  0.2095  1.0000  -4.0689   0.0000   0.0000   0.0000   0.2792
  13.500   1.5796   0.04804   0.04112  -0.0819  0.2042  1.0000  -4.0995   0.0000   0.0000   0.0000   0.2786
  13.600   1.5780   0.04912   0.04217  -0.0813  0.1994  1.0000  -4.1287   0.0000   0.0000   0.0000   0.2780
  13.700   1.5771   0.05019   0.04326  -0.0807  0.1940  1.0000  -4.1595   0.0000   0.0000   0.0000   0.2775
  13.800   1.5754   0.05130   0.04434  -0.0801  0.1895  1.0000  -4.1883   0.0000   0.0000   0.0000   0.2769
  13.900   1.5743   0.05241   0.04546  -0.0796  0.1842  1.0000  -4.2184   0.0000   0.0000   0.0000   0.2764
  14.000   1.5728   0.05354   0.04658  -0.0790  0.1797  1.0000  -4.2475   0.0000   0.0000   0.0000   0.2759
  14.100   1.5713   0.05470   0.04773  -0.0785  0.1750  1.0000  -4.2763   0.0000   0.0000   0.0000   0.2754
  14.200   1.5700   0.05585   0.04888  -0.0780  0.1704  1.0000  -4.3056   0.0000   0.0000   0.0000   0.2749
  14.300   1.5683   0.05704   0.05005  -0.0775  0.1663  1.0000  -4.3337   0.0000   0.0000   0.0000   0.2744
  14.400   1.5672   0.05821   0.05124  -0.0771  0.1617  1.0000  -4.3632   0.0000   0.0000   0.0000   0.2740
  14.500   1.5653   0.05944   0.05243  -0.0766  0.1580  1.0000  -4.3925   0.0000   0.0000   0.0000   0.2735
  14.600   1.5643   0.06064   0.05366  -0.0762  0.1535  1.0000  -4.4240   0.0000   0.0000   0.0000   0.2731
  14.700   1.5625   0.06187   0.05485  -0.0758  0.1501  1.0000  -4.4537   0.0000   0.0000   0.0000   0.2726
  14.800   1.5614   0.06309   0.05611  -0.0755  0.1457  1.0000  -4.4849   0.0000   0.0000   0.0000   0.2722
  14.900   1.5597   0.06434   0.05731  -0.0751  0.1425  1.0000  -4.5148   0.0000   0.0000   0.0000   0.2718
  15.000   1.5587   0.06557   0.05859  -0.0747  0.1385  1.0000  -4.5458   0.0000   0.0000   0.0000   0.2714
  15.100   1.5570   0.06683   0.05981  -0.0744  0.1354  1.0000  -4.5761   0.0000   0.0000   0.0000   0.2710
  15.200   1.5560   0.06808   0.06110  -0.0741  0.1317  1.0000  -4.6069   0.0000   0.0000   0.0000   0.2706
  15.300   1.5546   0.06935   0.06235  -0.0738  0.1287  1.0000  -4.6376   0.0000   0.0000   0.0000   0.2702
  15.400   1.5535   0.07061   0.06363  -0.0735  0.1255  1.0000  -4.6685   0.0000   0.0000   0.0000   0.2699
  15.500   1.5524   0.07188   0.06490  -0.0733  0.1224  1.0000  -4.6996   0.0000   0.0000   0.0000   0.2695
  15.600   1.5514   0.07312   0.06612  -0.0730  0.1197  1.0000  -4.7312   0.0000   0.0000   0.0000   0.2691
  15.700   1.5504   0.07440   0.06745  -0.0728  0.1167  1.0000  -4.7619   0.0000   0.0000   0.0000   0.2688
  15.800   1.5494   0.07562   0.06862  -0.0726  0.1143  1.0000  -4.7947   0.0000   0.0000   0.0000   0.2685
  15.900   1.5485   0.07692   0.06997  -0.0724  0.1114  1.0000  -4.8254   0.0000   0.0000   0.0000   0.2681
  16.000   1.5476   0.07817   0.07123  -0.0722  0.1090  1.0000  -4.8597   0.0000   0.0000   0.0000   0.2678
  16.100   1.5471   0.07936   0.07239  -0.0720  0.1067  1.0000  -4.8958   0.0000   0.0000   0.0000   0.2675
  16.200   1.5461   0.08069   0.07377  -0.0719  0.1041  1.0000  -4.9279   0.0000   0.0000   0.0000   0.2672
  16.300   1.5456   0.08190   0.07496  -0.0717  0.1020  1.0000  -4.9642   0.0000   0.0000   0.0000   0.2669
  16.400   1.5451   0.08313   0.07620  -0.0715  0.0998  1.0000  -4.9994   0.0000   0.0000   0.0000   0.2665
  16.500   1.5443   0.08444   0.07755  -0.0714  0.0975  1.0000  -5.0322   0.0000   0.0000   0.0000   0.2663
  16.600   1.5442   0.08559   0.07867  -0.0713  0.0956  1.0000  -5.0708   0.0000   0.0000   0.0000   0.2659
  16.700   1.5438   0.08683   0.07994  -0.0712  0.0936  1.0000  -5.1057   0.0000   0.0000   0.0000   0.2656
  16.800   1.5431   0.08815   0.08131  -0.0711  0.0915  1.0000  -5.1386   0.0000   0.0000   0.0000   0.2654
  16.900   1.5433   0.08926   0.08240  -0.0710  0.0897  1.0000  -5.1784   0.0000   0.0000   0.0000   0.2651
  17.000   1.5434   0.09042   0.08355  -0.0709  0.0880  1.0000  -5.2160   0.0000   0.0000   0.0000   0.2648
  17.100   1.5424   0.09179   0.08500  -0.0709  0.0861  1.0000  -5.2465   0.0000   0.0000   0.0000   0.2645
  17.200   1.5426   0.09295   0.08615  -0.0708  0.0844  1.0000  -5.2852   0.0000   0.0000   0.0000   0.2643
  17.300   1.5442   0.09382   0.08695  -0.0706  0.0828  1.0000  -5.3325   0.0000   0.0000   0.0000   0.2638
  17.400   1.5424   0.09536   0.08861  -0.0707  0.0811  1.0000  -5.3571   0.0000   0.0000   0.0000   0.2637
  17.500   1.5421   0.09662   0.08989  -0.0707  0.0795  1.0000  -5.3922   0.0000   0.0000   0.0000   0.2635
  17.600   1.5436   0.09754   0.09076  -0.0706  0.0780  1.0000  -5.4388   0.0000   0.0000   0.0000   0.2631
  17.700   1.5438   0.09872   0.09196  -0.0706  0.0765  1.0000  -5.4754   0.0000   0.0000   0.0000   0.2629
  17.800   1.5426   0.10017   0.09350  -0.0707  0.0750  1.0000  -5.5030   0.0000   0.0000   0.0000   0.2628
  17.900   1.5431   0.10131   0.09465  -0.0707  0.0736  1.0000  -5.5422   0.0000   0.0000   0.0000   0.2625
  18.000   1.5462   0.10193   0.09519  -0.0705  0.0722  1.0000  -5.5983   0.0000   0.0000   0.0000   0.2620
  18.100   1.5453   0.10334   0.09668  -0.0706  0.0709  1.0000  -5.6264   0.0000   0.0000   0.0000   0.2619
  18.200   1.5441   0.10481   0.09823  -0.0708  0.0696  1.0000  -5.6533   0.0000   0.0000   0.0000   0.2618
  18.300   1.5447   0.10593   0.09936  -0.0709  0.0683  1.0000  -5.6931   0.0000   0.0000   0.0000   0.2616
  18.400   1.5485   0.10645   0.09979  -0.0706  0.0670  1.0000  -5.7531   0.0000   0.0000   0.0000   0.2611
  18.500   1.5481   0.10777   0.10117  -0.0707  0.0659  1.0000  -5.7836   0.0000   0.0000   0.0000   0.2609
  18.600   1.5463   0.10934   0.10284  -0.0710  0.0647  1.0000  -5.8058   0.0000   0.0000   0.0000   0.2609
  18.700   1.5463   0.11059   0.10412  -0.0712  0.0636  1.0000  -5.8406   0.0000   0.0000   0.0000   0.2608
  18.800   1.5490   0.11132   0.10481  -0.0711  0.0625  1.0000  -5.8936   0.0000   0.0000   0.0000   0.2604
  18.900   1.5534   0.11172   0.10515  -0.0708  0.0613  1.0000  -5.9551   0.0000   0.0000   0.0000   0.2598
  19.000   1.5503   0.11356   0.10712  -0.0713  0.0604  1.0000  -5.9672   0.0000   0.0000   0.0000   0.2600
  19.100   1.5493   0.11503   0.10866  -0.0716  0.0594  1.0000  -5.9928   0.0000   0.0000   0.0000   0.2599
  19.200   1.5500   0.11617   0.10983  -0.0718  0.0585  1.0000  -6.0308   0.0000   0.0000   0.0000   0.2598
  19.300   1.5543   0.11661   0.11021  -0.0716  0.0575  1.0000  -6.0934   0.0000   0.0000   0.0000   0.2593
  19.400   1.5593   0.11692   0.11048  -0.0713  0.0565  1.0000  -6.1573   0.0000   0.0000   0.0000   0.2587
  19.500   1.5556   0.11889   0.11258  -0.0719  0.0557  1.0000  -6.1641   0.0000   0.0000   0.0000   0.2589
  19.600   1.5538   0.12050   0.11429  -0.0724  0.0549  1.0000  -6.1832   0.0000   0.0000   0.0000   0.2590
  19.700   1.5537   0.12182   0.11565  -0.0727  0.0541  1.0000  -6.2146   0.0000   0.0000   0.0000   0.2590
  19.800   1.5558   0.12271   0.11653  -0.0729  0.0533  1.0000  -6.2622   0.0000   0.0000   0.0000   0.2587
  19.900   1.5663   0.12196   0.11563  -0.0720  0.0522  1.0000  -6.3658   0.0000   0.0000   0.0000   0.2576
  20.000   1.5629   0.12388   0.11766  -0.0727  0.0516  1.0000  -6.3729   0.0000   0.0000   0.0000   0.2579


