xflr5 v6.57

 Calculated polar for: wine

 1 1 Reynolds number fixed          Mach number fixed         

 xtrf =   1.000 (top)        1.000 (bottom)
 Mach =   0.000     Re =     0.640 e 6     Ncrit =   9.000

  alpha     CL        CD       CDp       Cm    Top Xtr Bot Xtr   Cpmin    Chinge    XCp    
 ------- -------- --------- --------- -------- ------- ------- -------- --------- ---------
  -9.900  -0.4306   0.02383   0.01920  -0.1367  0.8152  0.0227  -6.1121   0.0000   0.0000   0.0000  -0.0886
  -9.800  -0.4214   0.02333   0.01864  -0.1370  0.8137  0.0229  -6.0353   0.0000   0.0000   0.0000  -0.0962
  -9.700  -0.4122   0.02282   0.01805  -0.1372  0.8123  0.0231  -5.9607   0.0000   0.0000   0.0000  -0.1042
  -9.600  -0.4029   0.02229   0.01743  -0.1374  0.8110  0.0233  -5.8877   0.0000   0.0000   0.0000  -0.1125
  -9.500  -0.3935   0.02178   0.01682  -0.1376  0.8099  0.0235  -5.8155   0.0000   0.0000   0.0000  -0.1213
  -9.400  -0.3840   0.02127   0.01622  -0.1378  0.8085  0.0237  -5.7431   0.0000   0.0000   0.0000  -0.1307
  -9.300  -0.3743   0.02079   0.01565  -0.1380  0.8070  0.0239  -5.6699   0.0000   0.0000   0.0000  -0.1407
  -9.200  -0.3644   0.02035   0.01512  -0.1381  0.8055  0.0241  -5.5943   0.0000   0.0000   0.0000  -0.1514
  -9.100  -0.3542   0.02000   0.01467  -0.1383  0.8041  0.0243  -5.5198   0.0000   0.0000   0.0000  -0.1630
  -9.000  -0.3437   0.01973   0.01431  -0.1384  0.8028  0.0245  -5.4443   0.0000   0.0000   0.0000  -0.1756
  -8.900  -0.3346   0.01901   0.01350  -0.1385  0.8016  0.0248  -5.3892   0.0000   0.0000   0.0000  -0.1873
  -8.800  -0.3249   0.01852   0.01297  -0.1387  0.8005  0.0251  -5.3159   0.0000   0.0000   0.0000  -0.2004
  -8.700  -0.3145   0.01824   0.01268  -0.1388  0.7993  0.0253  -5.2316   0.0000   0.0000   0.0000  -0.2152
  -8.600  -0.3039   0.01801   0.01245  -0.1389  0.7978  0.0255  -5.1456   0.0000   0.0000   0.0000  -0.2314
  -8.500  -0.2932   0.01780   0.01222  -0.1390  0.7964  0.0258  -5.0606   0.0000   0.0000   0.0000  -0.2489
  -8.400  -0.2825   0.01757   0.01197  -0.1391  0.7950  0.0260  -4.9779   0.0000   0.0000   0.0000  -0.2677
  -8.300  -0.2718   0.01733   0.01169  -0.1392  0.7938  0.0263  -4.8981   0.0000   0.0000   0.0000  -0.2880
  -8.200  -0.2611   0.01708   0.01139  -0.1392  0.7926  0.0265  -4.8204   0.0000   0.0000   0.0000  -0.3100
  -8.100  -0.2503   0.01683   0.01109  -0.1393  0.7916  0.0268  -4.7433   0.0000   0.0000   0.0000  -0.3339
  -8.000  -0.2395   0.01659   0.01078  -0.1394  0.7905  0.0271  -4.6674   0.0000   0.0000   0.0000  -0.3600
  -7.900  -0.2287   0.01633   0.01049  -0.1395  0.7890  0.0274  -4.5926   0.0000   0.0000   0.0000  -0.3887
  -7.800  -0.2179   0.01608   0.01019  -0.1395  0.7876  0.0277  -4.5181   0.0000   0.0000   0.0000  -0.4203
  -7.700  -0.2070   0.01586   0.00992  -0.1396  0.7863  0.0279  -4.4435   0.0000   0.0000   0.0000  -0.4555
  -7.600  -0.1959   0.01566   0.00966  -0.1397  0.7850  0.0282  -4.3680   0.0000   0.0000   0.0000  -0.4950
  -7.500  -0.1848   0.01551   0.00944  -0.1397  0.7838  0.0284  -4.2912   0.0000   0.0000   0.0000  -0.5398
  -7.400  -0.1747   0.01497   0.00888  -0.1398  0.7827  0.0288  -4.2282   0.0000   0.0000   0.0000  -0.5851
  -7.300  -0.1639   0.01471   0.00860  -0.1399  0.7817  0.0291  -4.1512   0.0000   0.0000   0.0000  -0.6397
  -7.200  -0.1530   0.01453   0.00842  -0.1400  0.7805  0.0294  -4.0705   0.0000   0.0000   0.0000  -0.7034
  -7.100  -0.1419   0.01438   0.00828  -0.1401  0.7791  0.0298  -3.9895   0.0000   0.0000   0.0000  -0.7776
  -7.000  -0.1308   0.01424   0.00812  -0.1401  0.7777  0.0302  -3.9095   0.0000   0.0000   0.0000  -0.8649
  -6.900  -0.1196   0.01410   0.00796  -0.1402  0.7764  0.0306  -3.8311   0.0000   0.0000   0.0000  -0.9688
  -6.800  -0.1084   0.01395   0.00778  -0.1403  0.7751  0.0310  -3.7547   0.0000   0.0000   0.0000  -1.0943
  -6.700  -0.0972   0.01380   0.00759  -0.1403  0.7740  0.0315  -3.6796   0.0000   0.0000   0.0000  -1.2490
  -6.600  -0.0859   0.01365   0.00739  -0.1404  0.7730  0.0319  -3.6056   0.0000   0.0000   0.0000  -1.4449
  -6.500  -0.0746   0.01352   0.00721  -0.1404  0.7720  0.0322  -3.5319   0.0000   0.0000   0.0000  -1.7018
  -6.400  -0.0634   0.01335   0.00701  -0.1405  0.7707  0.0325  -3.4670   0.0000   0.0000   0.0000  -2.0442
  -6.300  -0.0529   0.01300   0.00667  -0.1406  0.7693  0.0330  -3.4061   0.0000   0.0000   0.0000  -2.5036
  -6.200  -0.0418   0.01282   0.00650  -0.1406  0.7679  0.0335  -3.3376   0.0000   0.0000   0.0000  -3.2325
  -6.100  -0.0306   0.01268   0.00636  -0.1407  0.7667  0.0340  -3.2681   0.0000   0.0000   0.0000  -4.5102
  -6.000  -0.0193   0.01256   0.00623  -0.1408  0.7655  0.0344  -3.1994   0.0000   0.0000   0.0000  -7.2962
  -5.900  -0.0079   0.01244   0.00608  -0.1409  0.7643  0.0350  -3.1318   0.0000   0.0000   0.0000  -18.0513
  -5.800   0.0034   0.01232   0.00593  -0.1409  0.7633  0.0356  -3.0653   0.0000   0.0000   0.0000  42.7347
  -5.700   0.0149   0.01223   0.00579  -0.1410  0.7623  0.0361  -2.9991   0.0000   0.0000   0.0000  10.0306
  -5.600   0.0263   0.01215   0.00569  -0.1410  0.7609  0.0367  -2.9330   0.0000   0.0000   0.0000   5.7814
  -5.500   0.0372   0.01190   0.00545  -0.1411  0.7595  0.0374  -2.8714   0.0000   0.0000   0.0000   4.1583
  -5.400   0.0484   0.01176   0.00532  -0.1412  0.7582  0.0381  -2.8044   0.0000   0.0000   0.0000   3.2528
  -5.300   0.0598   0.01166   0.00522  -0.1413  0.7568  0.0388  -2.7373   0.0000   0.0000   0.0000   2.6819
  -5.200   0.0712   0.01156   0.00511  -0.1414  0.7556  0.0396  -2.6716   0.0000   0.0000   0.0000   2.2916
  -5.100   0.0826   0.01147   0.00499  -0.1414  0.7544  0.0404  -2.6074   0.0000   0.0000   0.0000   2.0082
  -5.000   0.0942   0.01139   0.00487  -0.1415  0.7534  0.0411  -2.5438   0.0000   0.0000   0.0000   1.7926
  -4.900   0.1055   0.01123   0.00469  -0.1416  0.7524  0.0420  -2.4847   0.0000   0.0000   0.0000   1.6275
  -4.800   0.1167   0.01109   0.00458  -0.1417  0.7510  0.0429  -2.4265   0.0000   0.0000   0.0000   1.4949
  -4.700   0.1281   0.01100   0.00449  -0.1417  0.7496  0.0438  -2.3679   0.0000   0.0000   0.0000   1.3843
  -4.600   0.1395   0.01091   0.00440  -0.1418  0.7482  0.0448  -2.3102   0.0000   0.0000   0.0000   1.2912
  -4.500   0.1510   0.01084   0.00431  -0.1419  0.7469  0.0459  -2.2534   0.0000   0.0000   0.0000   1.2117
  -4.400   0.1624   0.01071   0.00417  -0.1419  0.7457  0.0471  -2.1979   0.0000   0.0000   0.0000   1.1444
  -4.300   0.1738   0.01061   0.00407  -0.1420  0.7445  0.0483  -2.1398   0.0000   0.0000   0.0000   1.0855
  -4.200   0.1854   0.01055   0.00399  -0.1421  0.7434  0.0497  -2.0822   0.0000   0.0000   0.0000   1.0334
  -4.100   0.1970   0.01050   0.00392  -0.1422  0.7424  0.0511  -2.0257   0.0000   0.0000   0.0000   0.9871
  -4.000   0.2082   0.01037   0.00381  -0.1423  0.7409  0.0526  -1.9711   0.0000   0.0000   0.0000   0.9472
  -3.900   0.2196   0.01029   0.00374  -0.1423  0.7395  0.0542  -1.9150   0.0000   0.0000   0.0000   0.9110
  -3.800   0.2311   0.01022   0.00367  -0.1424  0.7380  0.0559  -1.8599   0.0000   0.0000   0.0000   0.8781
  -3.700   0.2426   0.01013   0.00357  -0.1425  0.7367  0.0577  -1.8059   0.0000   0.0000   0.0000   0.8483
  -3.600   0.2541   0.01005   0.00349  -0.1426  0.7354  0.0597  -1.7510   0.0000   0.0000   0.0000   0.8213
  -3.500   0.2657   0.00999   0.00342  -0.1427  0.7343  0.0619  -1.6973   0.0000   0.0000   0.0000   0.7963
  -3.400   0.2772   0.00991   0.00334  -0.1427  0.7332  0.0644  -1.6480   0.0000   0.0000   0.0000   0.7736
  -3.300   0.2888   0.00985   0.00328  -0.1428  0.7320  0.0672  -1.5985   0.0000   0.0000   0.0000   0.7527
  -3.200   0.3001   0.00977   0.00322  -0.1429  0.7305  0.0703  -1.5502   0.0000   0.0000   0.0000   0.7336
  -3.100   0.3116   0.00970   0.00316  -0.1430  0.7290  0.0738  -1.5017   0.0000   0.0000   0.0000   0.7158
  -3.000   0.3230   0.00962   0.00310  -0.1431  0.7275  0.0776  -1.4537   0.0000   0.0000   0.0000   0.6992
  -2.900   0.3346   0.00955   0.00304  -0.1431  0.7262  0.0822  -1.4059   0.0000   0.0000   0.0000   0.6837
  -2.800   0.3461   0.00948   0.00298  -0.1432  0.7249  0.0875  -1.3581   0.0000   0.0000   0.0000   0.6693
  -2.700   0.3577   0.00941   0.00292  -0.1433  0.7237  0.0938  -1.3106   0.0000   0.0000   0.0000   0.6557
  -2.600   0.3693   0.00935   0.00287  -0.1434  0.7226  0.1010  -1.2633   0.0000   0.0000   0.0000   0.6430
  -2.500   0.3806   0.00927   0.00284  -0.1435  0.7210  0.1093  -1.2170   0.0000   0.0000   0.0000   0.6313
  -2.400   0.3920   0.00920   0.00280  -0.1436  0.7194  0.1189  -1.1709   0.0000   0.0000   0.0000   0.6202
  -2.300   0.4034   0.00912   0.00277  -0.1437  0.7179  0.1295  -1.1249   0.0000   0.0000   0.0000   0.6097
  -2.200   0.4149   0.00905   0.00273  -0.1438  0.7165  0.1414  -1.0792   0.0000   0.0000   0.0000   0.5997
  -2.000   0.4379   0.00892   0.00266  -0.1440  0.7139  0.1668  -0.9923   0.0000   0.0000   0.0000   0.5814
  -1.900   0.4495   0.00887   0.00263  -0.1441  0.7127  0.1806  -0.9508   0.0000   0.0000   0.0000   0.5729
  -1.800   0.4609   0.00881   0.00262  -0.1442  0.7112  0.1944  -0.9101   0.0000   0.0000   0.0000   0.5649
  -1.700   0.4722   0.00874   0.00261  -0.1443  0.7095  0.2092  -0.8698   0.0000   0.0000   0.0000   0.5573
  -1.600   0.4837   0.00868   0.00259  -0.1444  0.7079  0.2247  -0.8297   0.0000   0.0000   0.0000   0.5500
  -1.500   0.4951   0.00861   0.00257  -0.1445  0.7064  0.2408  -0.8342   0.0000   0.0000   0.0000   0.5431
  -1.400   0.5066   0.00856   0.00255  -0.1446  0.7050  0.2576  -0.8417   0.0000   0.0000   0.0000   0.5364
  -1.300   0.5181   0.00850   0.00253  -0.1447  0.7037  0.2751  -0.8492   0.0000   0.0000   0.0000   0.5300
  -1.200   0.5297   0.00845   0.00252  -0.1448  0.7025  0.2939  -0.8569   0.0000   0.0000   0.0000   0.5239
  -1.100   0.5410   0.00838   0.00252  -0.1449  0.7008  0.3140  -0.8646   0.0000   0.0000   0.0000   0.5182
  -1.000   0.5523   0.00831   0.00252  -0.1449  0.6990  0.3348  -0.8724   0.0000   0.0000   0.0000   0.5126
  -0.900   0.5637   0.00825   0.00251  -0.1450  0.6973  0.3564  -0.8803   0.0000   0.0000   0.0000   0.5073
  -0.800   0.5751   0.00819   0.00251  -0.1451  0.6957  0.3795  -0.8882   0.0000   0.0000   0.0000   0.5022
  -0.700   0.5865   0.00812   0.00250  -0.1452  0.6943  0.4040  -0.8963   0.0000   0.0000   0.0000   0.4972
  -0.600   0.5979   0.00807   0.00250  -0.1453  0.6929  0.4293  -0.9045   0.0000   0.0000   0.0000   0.4925
  -0.500   0.6093   0.00801   0.00250  -0.1454  0.6914  0.4551  -0.9126   0.0000   0.0000   0.0000   0.4879
  -0.400   0.6205   0.00794   0.00252  -0.1454  0.6895  0.4816  -0.9207   0.0000   0.0000   0.0000   0.4835
   0.000   0.6656   0.00772   0.00256  -0.1456  0.6830  0.5858  -0.9539   0.0000   0.0000   0.0000   0.4672
   0.100   0.6768   0.00768   0.00257  -0.1456  0.6816  0.6122  -0.9623   0.0000   0.0000   0.0000   0.4634
   0.200   0.6878   0.00763   0.00261  -0.1456  0.6796  0.6390  -0.9707   0.0000   0.0000   0.0000   0.4598
   0.300   0.6988   0.00759   0.00264  -0.1456  0.6777  0.6648  -0.9793   0.0000   0.0000   0.0000   0.4563
   0.400   0.7098   0.00755   0.00266  -0.1455  0.6759  0.6883  -0.9879   0.0000   0.0000   0.0000   0.4528
   0.500   0.7208   0.00752   0.00267  -0.1455  0.6742  0.7098  -0.9966   0.0000   0.0000   0.0000   0.4495
   0.600   0.7318   0.00750   0.00268  -0.1454  0.6727  0.7291  -1.0055   0.0000   0.0000   0.0000   0.4462
   0.700   0.7428   0.00748   0.00270  -0.1453  0.6711  0.7476  -1.0147   0.0000   0.0000   0.0000   0.4430
   0.800   0.7535   0.00745   0.00273  -0.1452  0.6689  0.7658  -1.0236   0.0000   0.0000   0.0000   0.4399
   0.900   0.7642   0.00743   0.00275  -0.1451  0.6669  0.7833  -1.0326   0.0000   0.0000   0.0000   0.4369
   1.000   0.7749   0.00740   0.00277  -0.1449  0.6649  0.8008  -1.0418   0.0000   0.0000   0.0000   0.4340
   1.100   0.7853   0.00738   0.00278  -0.1447  0.6632  0.8181  -1.0509   0.0000   0.0000   0.0000   0.4311
   1.200   0.7958   0.00737   0.00278  -0.1445  0.6616  0.8355  -1.0601   0.0000   0.0000   0.0000   0.4283
   1.400   0.8154   0.00730   0.00283  -0.1438  0.6573  0.8731  -1.0777   0.0000   0.0000   0.0000   0.4227
   1.500   0.8246   0.00725   0.00283  -0.1433  0.6552  0.8963  -1.0864   0.0000   0.0000   0.0000   0.4200
   1.600   0.8336   0.00720   0.00282  -0.1427  0.6533  0.9267  -1.0954   0.0000   0.0000   0.0000   0.4173
   1.700   0.8504   0.00714   0.00278  -0.1438  0.6515  0.9881  -1.1090   0.0000   0.0000   0.0000   0.4151
   1.800   0.8622   0.00717   0.00279  -0.1440  0.6494  1.0000  -1.1194   0.0000   0.0000   0.0000   0.4128
   1.900   0.8736   0.00719   0.00281  -0.1441  0.6470  1.0000  -1.1297   0.0000   0.0000   0.0000   0.4106
   2.000   0.8850   0.00721   0.00282  -0.1441  0.6447  1.0000  -1.1405   0.0000   0.0000   0.0000   0.4084
   2.100   0.8964   0.00724   0.00283  -0.1442  0.6426  1.0000  -1.1514   0.0000   0.0000   0.0000   0.4063
   2.200   0.9078   0.00728   0.00283  -0.1443  0.6407  1.0000  -1.1624   0.0000   0.0000   0.0000   0.4042
   2.300   0.9190   0.00731   0.00286  -0.1443  0.6383  1.0000  -1.1735   0.0000   0.0000   0.0000   0.4022
   2.400   0.9303   0.00733   0.00288  -0.1444  0.6357  1.0000  -1.1847   0.0000   0.0000   0.0000   0.4002
   2.500   0.9416   0.00736   0.00290  -0.1444  0.6333  1.0000  -1.1961   0.0000   0.0000   0.0000   0.3983
   2.600   0.9528   0.00740   0.00291  -0.1445  0.6311  1.0000  -1.2076   0.0000   0.0000   0.0000   0.3964
   2.700   0.9640   0.00744   0.00293  -0.1445  0.6288  1.0000  -1.2194   0.0000   0.0000   0.0000   0.3945
   2.800   0.9752   0.00747   0.00296  -0.1445  0.6260  1.0000  -1.2312   0.0000   0.0000   0.0000   0.3927
   2.900   0.9864   0.00750   0.00299  -0.1446  0.6234  1.0000  -1.2430   0.0000   0.0000   0.0000   0.3910
   3.000   0.9975   0.00754   0.00301  -0.1446  0.6210  1.0000  -1.2548   0.0000   0.0000   0.0000   0.3892
   3.100   1.0086   0.00759   0.00303  -0.1446  0.6187  1.0000  -1.2670   0.0000   0.0000   0.0000   0.3875
   3.200   1.0198   0.00761   0.00307  -0.1446  0.6157  1.0000  -1.2795   0.0000   0.0000   0.0000   0.3858
   3.300   1.0308   0.00765   0.00310  -0.1447  0.6129  1.0000  -1.2920   0.0000   0.0000   0.0000   0.3842
   3.400   1.0418   0.00770   0.00312  -0.1446  0.6104  1.0000  -1.3045   0.0000   0.0000   0.0000   0.3826
   3.500   1.0528   0.00774   0.00315  -0.1447  0.6078  1.0000  -1.3173   0.0000   0.0000   0.0000   0.3810
   3.600   1.0639   0.00778   0.00319  -0.1447  0.6046  1.0000  -1.3303   0.0000   0.0000   0.0000   0.3794
   3.700   1.0748   0.00782   0.00323  -0.1447  0.6017  1.0000  -1.3435   0.0000   0.0000   0.0000   0.3779
   3.800   1.0856   0.00788   0.00326  -0.1446  0.5990  1.0000  -1.3572   0.0000   0.0000   0.0000   0.3764
   3.900   1.0966   0.00792   0.00330  -0.1446  0.5958  1.0000  -1.3712   0.0000   0.0000   0.0000   0.3750
   4.000   1.1074   0.00796   0.00334  -0.1446  0.5925  1.0000  -1.3854   0.0000   0.0000   0.0000   0.3735
   4.100   1.1182   0.00802   0.00338  -0.1446  0.5895  1.0000  -1.3999   0.0000   0.0000   0.0000   0.3721
   4.200   1.1289   0.00807   0.00342  -0.1445  0.5864  1.0000  -1.4146   0.0000   0.0000   0.0000   0.3707
   4.300   1.1397   0.00812   0.00347  -0.1445  0.5827  1.0000  -1.4299   0.0000   0.0000   0.0000   0.3693
   4.400   1.1503   0.00818   0.00351  -0.1444  0.5793  1.0000  -1.4457   0.0000   0.0000   0.0000   0.3679
   4.500   1.1609   0.00824   0.00356  -0.1444  0.5760  1.0000  -1.4618   0.0000   0.0000   0.0000   0.3666
   4.600   1.1716   0.00829   0.00361  -0.1443  0.5721  1.0000  -1.4783   0.0000   0.0000   0.0000   0.3653
   4.700   1.1821   0.00835   0.00366  -0.1442  0.5684  1.0000  -1.4946   0.0000   0.0000   0.0000   0.3640
   4.800   1.1925   0.00842   0.00371  -0.1442  0.5648  1.0000  -1.5111   0.0000   0.0000   0.0000   0.3627
   4.900   1.2031   0.00848   0.00377  -0.1441  0.5607  1.0000  -1.5281   0.0000   0.0000   0.0000   0.3615
   5.000   1.2133   0.00855   0.00383  -0.1440  0.5569  1.0000  -1.5453   0.0000   0.0000   0.0000   0.3602
   5.100   1.2237   0.00862   0.00388  -0.1439  0.5529  1.0000  -1.5628   0.0000   0.0000   0.0000   0.3590
   5.200   1.2340   0.00869   0.00395  -0.1438  0.5486  1.0000  -1.5817   0.0000   0.0000   0.0000   0.3578
   5.300   1.2440   0.00878   0.00401  -0.1436  0.5447  1.0000  -1.6007   0.0000   0.0000   0.0000   0.3566
   5.400   1.2545   0.00884   0.00408  -0.1435  0.5403  1.0000  -1.6208   0.0000   0.0000   0.0000   0.3554
   5.500   1.2644   0.00893   0.00415  -0.1434  0.5360  1.0000  -1.6405   0.0000   0.0000   0.0000   0.3542
   5.600   1.2745   0.00901   0.00422  -0.1432  0.5317  1.0000  -1.6611   0.0000   0.0000   0.0000   0.3531
   5.700   1.2846   0.00909   0.00429  -0.1431  0.5270  1.0000  -1.6817   0.0000   0.0000   0.0000   0.3519
   5.800   1.2942   0.00919   0.00437  -0.1429  0.5227  1.0000  -1.7021   0.0000   0.0000   0.0000   0.3508
   5.900   1.3043   0.00927   0.00445  -0.1427  0.5176  1.0000  -1.7235   0.0000   0.0000   0.0000   0.3497
   6.100   1.3235   0.00947   0.00462  -0.1423  0.5075  1.0000  -1.7669   0.0000   0.0000   0.0000   0.3475
   6.200   1.3327   0.00959   0.00472  -0.1420  0.5024  1.0000  -1.7884   0.0000   0.0000   0.0000   0.3464
   6.300   1.3425   0.00969   0.00481  -0.1418  0.4971  1.0000  -1.8121   0.0000   0.0000   0.0000   0.3453
   6.400   1.3515   0.00981   0.00491  -0.1415  0.4919  1.0000  -1.8377   0.0000   0.0000   0.0000   0.3442
   6.500   1.3611   0.00991   0.00500  -0.1413  0.4866  1.0000  -1.8645   0.0000   0.0000   0.0000   0.3432
   6.600   1.3699   0.01005   0.00511  -0.1409  0.4814  1.0000  -1.8914   0.0000   0.0000   0.0000   0.3421
   6.700   1.3793   0.01015   0.00521  -0.1407  0.4760  1.0000  -1.9201   0.0000   0.0000   0.0000   0.3411
   6.800   1.3879   0.01029   0.00533  -0.1403  0.4706  1.0000  -1.9493   0.0000   0.0000   0.0000   0.3400
   6.900   1.3971   0.01041   0.00544  -0.1400  0.4651  1.0000  -1.9794   0.0000   0.0000   0.0000   0.3390
   7.000   1.4054   0.01056   0.00556  -0.1396  0.4596  1.0000  -2.0086   0.0000   0.0000   0.0000   0.3380
   7.100   1.4143   0.01069   0.00568  -0.1393  0.4537  1.0000  -2.0400   0.0000   0.0000   0.0000   0.3370
   7.200   1.4222   0.01085   0.00582  -0.1388  0.4480  1.0000  -2.0699   0.0000   0.0000   0.0000   0.3359
   7.300   1.4308   0.01099   0.00594  -0.1385  0.4415  1.0000  -2.1019   0.0000   0.0000   0.0000   0.3349
   7.400   1.4386   0.01116   0.00609  -0.1379  0.4352  1.0000  -2.1332   0.0000   0.0000   0.0000   0.3339
   7.500   1.4461   0.01133   0.00623  -0.1374  0.4285  1.0000  -2.1643   0.0000   0.0000   0.0000   0.3329
   7.600   1.4539   0.01150   0.00638  -0.1369  0.4218  1.0000  -2.1958   0.0000   0.0000   0.0000   0.3318
   7.700   1.4608   0.01170   0.00655  -0.1363  0.4154  1.0000  -2.2263   0.0000   0.0000   0.0000   0.3308
   7.800   1.4679   0.01187   0.00670  -0.1357  0.4087  1.0000  -2.2585   0.0000   0.0000   0.0000   0.3298
   7.900   1.4743   0.01205   0.00687  -0.1349  0.4026  1.0000  -2.2895   0.0000   0.0000   0.0000   0.3287
   8.000   1.4805   0.01225   0.00704  -0.1341  0.3963  1.0000  -2.3202   0.0000   0.0000   0.0000   0.3276
   8.100   1.4871   0.01244   0.00722  -0.1334  0.3899  1.0000  -2.3519   0.0000   0.0000   0.0000   0.3266
   8.200   1.4928   0.01268   0.00742  -0.1326  0.3837  1.0000  -2.3821   0.0000   0.0000   0.0000   0.3256
   8.300   1.4992   0.01288   0.00761  -0.1319  0.3770  1.0000  -2.4151   0.0000   0.0000   0.0000   0.3246
   8.400   1.5050   0.01312   0.00782  -0.1312  0.3707  1.0000  -2.4471   0.0000   0.0000   0.0000   0.3235
   8.500   1.5105   0.01337   0.00805  -0.1303  0.3643  1.0000  -2.4784   0.0000   0.0000   0.0000   0.3225
   8.600   1.5165   0.01361   0.00827  -0.1296  0.3579  1.0000  -2.5112   0.0000   0.0000   0.0000   0.3215
   8.700   1.5217   0.01389   0.00853  -0.1288  0.3518  1.0000  -2.5426   0.0000   0.0000   0.0000   0.3205
   8.800   1.5273   0.01415   0.00877  -0.1281  0.3453  1.0000  -2.5843   0.0000   0.0000   0.0000   0.3196
   8.900   1.5327   0.01443   0.00903  -0.1273  0.3393  1.0000  -2.6255   0.0000   0.0000   0.0000   0.3186
   9.000   1.5375   0.01474   0.00932  -0.1265  0.3330  1.0000  -2.6652   0.0000   0.0000   0.0000   0.3177
   9.100   1.5430   0.01503   0.00959  -0.1258  0.3264  1.0000  -2.7072   0.0000   0.0000   0.0000   0.3167
   9.200   1.5478   0.01536   0.00990  -0.1250  0.3202  1.0000  -2.7472   0.0000   0.0000   0.0000   0.3158
   9.300   1.5526   0.01570   0.01021  -0.1242  0.3137  1.0000  -2.7876   0.0000   0.0000   0.0000   0.3149
   9.400   1.5576   0.01603   0.01053  -0.1235  0.3074  1.0000  -2.8288   0.0000   0.0000   0.0000   0.3140
   9.500   1.5618   0.01641   0.01088  -0.1226  0.3013  1.0000  -2.8679   0.0000   0.0000   0.0000   0.3130
   9.600   1.5666   0.01677   0.01123  -0.1219  0.2947  1.0000  -2.9089   0.0000   0.0000   0.0000   0.3122
   9.700   1.5711   0.01715   0.01158  -0.1212  0.2885  1.0000  -2.9492   0.0000   0.0000   0.0000   0.3113
   9.900   1.5796   0.01795   0.01235  -0.1196  0.2758  1.0000  -3.0291   0.0000   0.0000   0.0000   0.3095
  10.000   1.5836   0.01838   0.01275  -0.1189  0.2696  1.0000  -3.0685   0.0000   0.0000   0.0000   0.3087
  10.100   1.5871   0.01885   0.01319  -0.1181  0.2634  1.0000  -3.1069   0.0000   0.0000   0.0000   0.3078
  10.200   1.5914   0.01927   0.01359  -0.1174  0.2569  1.0000  -3.1475   0.0000   0.0000   0.0000   0.3070
  10.300   1.5950   0.01974   0.01404  -0.1166  0.2509  1.0000  -3.1875   0.0000   0.0000   0.0000   0.3062
  10.400   1.5984   0.02023   0.01450  -0.1158  0.2447  1.0000  -3.2280   0.0000   0.0000   0.0000   0.3053
  10.500   1.6022   0.02069   0.01495  -0.1151  0.2385  1.0000  -3.2701   0.0000   0.0000   0.0000   0.3045
  10.600   1.6053   0.02121   0.01544  -0.1143  0.2324  1.0000  -3.3102   0.0000   0.0000   0.0000   0.3037
  10.700   1.6080   0.02176   0.01596  -0.1135  0.2259  1.0000  -3.3493   0.0000   0.0000   0.0000   0.3029
  10.800   1.6113   0.02227   0.01646  -0.1127  0.2193  1.0000  -3.3901   0.0000   0.0000   0.0000   0.3021
  10.900   1.6139   0.02284   0.01699  -0.1119  0.2128  1.0000  -3.4293   0.0000   0.0000   0.0000   0.3013
  11.000   1.6161   0.02343   0.01756  -0.1111  0.2065  1.0000  -3.4673   0.0000   0.0000   0.0000   0.3005
  11.100   1.6185   0.02402   0.01812  -0.1103  0.1999  1.0000  -3.5060   0.0000   0.0000   0.0000   0.2997
  11.200   1.6211   0.02461   0.01868  -0.1095  0.1936  1.0000  -3.5454   0.0000   0.0000   0.0000   0.2989
  11.300   1.6233   0.02522   0.01927  -0.1087  0.1877  1.0000  -3.5837   0.0000   0.0000   0.0000   0.2981
  11.500   1.6280   0.02644   0.02044  -0.1072  0.1764  1.0000  -3.6614   0.0000   0.0000   0.0000   0.2966
  11.600   1.6302   0.02706   0.02105  -0.1064  0.1713  1.0000  -3.7001   0.0000   0.0000   0.0000   0.2959
  11.700   1.6322   0.02770   0.02167  -0.1057  0.1663  1.0000  -3.7385   0.0000   0.0000   0.0000   0.2951
  11.800   1.6349   0.02831   0.02227  -0.1050  0.1614  1.0000  -3.7786   0.0000   0.0000   0.0000   0.2944
  11.900   1.6366   0.02898   0.02292  -0.1042  0.1568  1.0000  -3.8162   0.0000   0.0000   0.0000   0.2937
  12.000   1.6390   0.02961   0.02354  -0.1035  0.1520  1.0000  -3.8558   0.0000   0.0000   0.0000   0.2929
  12.100   1.6410   0.03027   0.02418  -0.1028  0.1476  1.0000  -3.8943   0.0000   0.0000   0.0000   0.2922
  12.200   1.6426   0.03096   0.02486  -0.1021  0.1431  1.0000  -3.9341   0.0000   0.0000   0.0000   0.2915
  12.300   1.6448   0.03161   0.02550  -0.1014  0.1388  1.0000  -3.9761   0.0000   0.0000   0.0000   0.2908
  12.400   1.6461   0.03235   0.02622  -0.1006  0.1348  1.0000  -4.0147   0.0000   0.0000   0.0000   0.2901
  12.500   1.6485   0.03300   0.02687  -0.1000  0.1306  1.0000  -4.0574   0.0000   0.0000   0.0000   0.2894
  12.600   1.6499   0.03373   0.02759  -0.0993  0.1268  1.0000  -4.0969   0.0000   0.0000   0.0000   0.2887
  12.700   1.6519   0.03443   0.02828  -0.0987  0.1228  1.0000  -4.1385   0.0000   0.0000   0.0000   0.2881
  12.800   1.6535   0.03516   0.02900  -0.0980  0.1193  1.0000  -4.1792   0.0000   0.0000   0.0000   0.2874
  12.900   1.6553   0.03589   0.02973  -0.0974  0.1157  1.0000  -4.2227   0.0000   0.0000   0.0000   0.2868
  13.000   1.6570   0.03664   0.03048  -0.0967  0.1123  1.0000  -4.2660   0.0000   0.0000   0.0000   0.2861
  13.100   1.6586   0.03739   0.03123  -0.0961  0.1088  1.0000  -4.3091   0.0000   0.0000   0.0000   0.2855
  13.200   1.6602   0.03816   0.03200  -0.0955  0.1057  1.0000  -4.3524   0.0000   0.0000   0.0000   0.2849
  13.300   1.6617   0.03894   0.03277  -0.0950  0.1024  1.0000  -4.3954   0.0000   0.0000   0.0000   0.2842
  13.400   1.6631   0.03974   0.03357  -0.0944  0.0994  1.0000  -4.4381   0.0000   0.0000   0.0000   0.2836
  13.500   1.6645   0.04055   0.03437  -0.0938  0.0964  1.0000  -4.4828   0.0000   0.0000   0.0000   0.2830
  13.600   1.6657   0.04137   0.03520  -0.0932  0.0936  1.0000  -4.5276   0.0000   0.0000   0.0000   0.2824
  13.700   1.6672   0.04219   0.03602  -0.0927  0.0906  1.0000  -4.5734   0.0000   0.0000   0.0000   0.2818
  13.800   1.6681   0.04306   0.03688  -0.0921  0.0880  1.0000  -4.6174   0.0000   0.0000   0.0000   0.2812
  13.900   1.6697   0.04388   0.03771  -0.0916  0.0853  1.0000  -4.6646   0.0000   0.0000   0.0000   0.2807
  14.000   1.6702   0.04482   0.03864  -0.0911  0.0829  1.0000  -4.7093   0.0000   0.0000   0.0000   0.2801
  14.100   1.6721   0.04562   0.03946  -0.0906  0.0803  1.0000  -4.7603   0.0000   0.0000   0.0000   0.2796
  14.200   1.6726   0.04656   0.04040  -0.0901  0.0780  1.0000  -4.8055   0.0000   0.0000   0.0000   0.2790
  14.300   1.6740   0.04742   0.04126  -0.0896  0.0758  1.0000  -4.8547   0.0000   0.0000   0.0000   0.2785
  14.400   1.6750   0.04833   0.04218  -0.0892  0.0735  1.0000  -4.9021   0.0000   0.0000   0.0000   0.2779
  14.500   1.6753   0.04932   0.04317  -0.0887  0.0717  1.0000  -4.9465   0.0000   0.0000   0.0000   0.2774
  14.600   1.6770   0.05017   0.04404  -0.0883  0.0696  1.0000  -4.9972   0.0000   0.0000   0.0000   0.2769
  14.700   1.6775   0.05115   0.04502  -0.0878  0.0678  1.0000  -5.0430   0.0000   0.0000   0.0000   0.2764
  14.800   1.6780   0.05214   0.04602  -0.0874  0.0661  1.0000  -5.0887   0.0000   0.0000   0.0000   0.2759
  14.900   1.6794   0.05305   0.04695  -0.0870  0.0644  1.0000  -5.1383   0.0000   0.0000   0.0000   0.2754
  15.000   1.6798   0.05406   0.04797  -0.0866  0.0628  1.0000  -5.1838   0.0000   0.0000   0.0000   0.2749
  15.100   1.6798   0.05512   0.04904  -0.0862  0.0613  1.0000  -5.2276   0.0000   0.0000   0.0000   0.2744
  15.200   1.6812   0.05606   0.04999  -0.0859  0.0598  1.0000  -5.2774   0.0000   0.0000   0.0000   0.2740
  15.300   1.6816   0.05708   0.05103  -0.0855  0.0583  1.0000  -5.3235   0.0000   0.0000   0.0000   0.2735
  15.400   1.6810   0.05822   0.05218  -0.0851  0.0570  1.0000  -5.3646   0.0000   0.0000   0.0000   0.2731
  15.500   1.6820   0.05921   0.05320  -0.0848  0.0557  1.0000  -5.4128   0.0000   0.0000   0.0000   0.2726
  15.600   1.6827   0.06022   0.05423  -0.0845  0.0544  1.0000  -5.4604   0.0000   0.0000   0.0000   0.2722
  15.700   1.6825   0.06135   0.05537  -0.0842  0.0532  1.0000  -5.5035   0.0000   0.0000   0.0000   0.2718
  15.900   1.6827   0.06356   0.05762  -0.0836  0.0509  1.0000  -5.5928   0.0000   0.0000   0.0000   0.2709
  16.000   1.6831   0.06466   0.05873  -0.0834  0.0497  1.0000  -5.6387   0.0000   0.0000   0.0000   0.2705
  16.100   1.6827   0.06583   0.05992  -0.0831  0.0487  1.0000  -5.6813   0.0000   0.0000   0.0000   0.2702
  16.200   1.6812   0.06716   0.06126  -0.0828  0.0477  1.0000  -5.7181   0.0000   0.0000   0.0000   0.2698
  16.300   1.6821   0.06820   0.06233  -0.0826  0.0467  1.0000  -5.7668   0.0000   0.0000   0.0000   0.2694
  16.400   1.6824   0.06932   0.06348  -0.0824  0.0457  1.0000  -5.8124   0.0000   0.0000   0.0000   0.2690
  16.500   1.6819   0.07053   0.06471  -0.0822  0.0447  1.0000  -5.8544   0.0000   0.0000   0.0000   0.2687
  16.600   1.6805   0.07185   0.06605  -0.0820  0.0439  1.0000  -5.8921   0.0000   0.0000   0.0000   0.2684
  16.700   1.6792   0.07319   0.06740  -0.0818  0.0431  1.0000  -5.9300   0.0000   0.0000   0.0000   0.2680
  16.800   1.6800   0.07427   0.06853  -0.0816  0.0421  1.0000  -5.9780   0.0000   0.0000   0.0000   0.2677
  16.900   1.6797   0.07550   0.06978  -0.0815  0.0412  1.0000  -6.0209   0.0000   0.0000   0.0000   0.2674
  17.000   1.6787   0.07681   0.07111  -0.0814  0.0404  1.0000  -6.0604   0.0000   0.0000   0.0000   0.2671
  17.100   1.6768   0.07825   0.07257  -0.0812  0.0397  1.0000  -6.0952   0.0000   0.0000   0.0000   0.2668
  17.200   1.6751   0.07968   0.07401  -0.0811  0.0390  1.0000  -6.1309   0.0000   0.0000   0.0000   0.2666
  17.300   1.6756   0.08083   0.07521  -0.0811  0.0382  1.0000  -6.1774   0.0000   0.0000   0.0000   0.2662
  17.400   1.6749   0.08213   0.07654  -0.0810  0.0374  1.0000  -6.2183   0.0000   0.0000   0.0000   0.2660
  17.500   1.6738   0.08350   0.07793  -0.0809  0.0366  1.0000  -6.2567   0.0000   0.0000   0.0000   0.2657
  17.600   1.6716   0.08500   0.07945  -0.0809  0.0360  1.0000  -6.2897   0.0000   0.0000   0.0000   0.2655
  17.700   1.6685   0.08662   0.08109  -0.0809  0.0354  1.0000  -6.3178   0.0000   0.0000   0.0000   0.2653
  17.800   1.6678   0.08796   0.08246  -0.0809  0.0348  1.0000  -6.3577   0.0000   0.0000   0.0000   0.2651
  17.900   1.6674   0.08926   0.08380  -0.0809  0.0341  1.0000  -6.3993   0.0000   0.0000   0.0000   0.2649
  18.000   1.6662   0.09066   0.08523  -0.0809  0.0335  1.0000  -6.4371   0.0000   0.0000   0.0000   0.2647
  18.100   1.6643   0.09216   0.08676  -0.0809  0.0329  1.0000  -6.4712   0.0000   0.0000   0.0000   0.2645
  18.200   1.6619   0.09374   0.08836  -0.0810  0.0324  1.0000  -6.5022   0.0000   0.0000   0.0000   0.2644
  18.300   1.6585   0.09549   0.09013  -0.0811  0.0319  1.0000  -6.5268   0.0000   0.0000   0.0000   0.2643
  18.400   1.6560   0.09710   0.09177  -0.0813  0.0314  1.0000  -6.5565   0.0000   0.0000   0.0000   0.2642
  18.500   1.6555   0.09845   0.09317  -0.0814  0.0308  1.0000  -6.5969   0.0000   0.0000   0.0000   0.2640
  18.600   1.6545   0.09986   0.09462  -0.0815  0.0303  1.0000  -6.6350   0.0000   0.0000   0.0000   0.2638
  18.700   1.6527   0.10140   0.09619  -0.0816  0.0297  1.0000  -6.6684   0.0000   0.0000   0.0000   0.2637
  18.800   1.6505   0.10299   0.09780  -0.0818  0.0293  1.0000  -6.6996   0.0000   0.0000   0.0000   0.2637
  18.900   1.6476   0.10468   0.09952  -0.0821  0.0289  1.0000  -6.7264   0.0000   0.0000   0.0000   0.2636
  19.000   1.6440   0.10648   0.10134  -0.0823  0.0285  1.0000  -6.7488   0.0000   0.0000   0.0000   0.2636
  19.100   1.6394   0.10844   0.10333  -0.0826  0.0281  1.0000  -6.7645   0.0000   0.0000   0.0000   0.2637
  19.200   1.6384   0.10990   0.10483  -0.0829  0.0277  1.0000  -6.8009   0.0000   0.0000   0.0000   0.2636
  19.300   1.6372   0.11137   0.10634  -0.0831  0.0273  1.0000  -6.8362   0.0000   0.0000   0.0000   0.2635
  19.400   1.6356   0.11293   0.10793  -0.0834  0.0269  1.0000  -6.8691   0.0000   0.0000   0.0000   0.2635
  19.500   1.6339   0.11450   0.10954  -0.0837  0.0265  1.0000  -6.9009   0.0000   0.0000   0.0000   0.2635
  19.600   1.6315   0.11618   0.11125  -0.0841  0.0261  1.0000  -6.9288   0.0000   0.0000   0.0000   0.2635
  19.700   1.6289   0.11789   0.11299  -0.0845  0.0258  1.0000  -6.9555   0.0000   0.0000   0.0000   0.2636
  19.800   1.6257   0.11971   0.11484  -0.0849  0.0255  1.0000  -6.9776   0.0000   0.0000   0.0000   0.2637
  19.900   1.6221   0.12159   0.11674  -0.0854  0.0252  1.0000  -6.9971   0.0000   0.0000   0.0000   0.2639
  20.000   1.6177   0.12362   0.11880  -0.0860  0.0249  1.0000  -7.0101   0.0000   0.0000   0.0000   0.2641


