xflr5 v6.57

 Calculated polar for: wine

 1 1 Reynolds number fixed          Mach number fixed         

 xtrf =   1.000 (top)        1.000 (bottom)
 Mach =   0.000     Re =     0.760 e 6     Ncrit =   9.000

  alpha     CL        CD       CDp       Cm    Top Xtr Bot Xtr   Cpmin    Chinge    XCp    
 ------- -------- --------- --------- -------- ------- ------- -------- --------- ---------
 -10.000  -0.4528   0.02042   0.01543  -0.1369  0.8069  0.0213  -6.4635   0.0000   0.0000   0.0000  -0.0731
  -9.900  -0.4438   0.01982   0.01479  -0.1371  0.8054  0.0215  -6.3859   0.0000   0.0000   0.0000  -0.0797
  -9.800  -0.4339   0.01944   0.01438  -0.1373  0.8040  0.0217  -6.2960   0.0000   0.0000   0.0000  -0.0872
  -9.700  -0.4238   0.01914   0.01406  -0.1374  0.8027  0.0218  -6.2019   0.0000   0.0000   0.0000  -0.0952
  -9.600  -0.4135   0.01888   0.01377  -0.1375  0.8016  0.0220  -6.1066   0.0000   0.0000   0.0000  -0.1037
  -9.500  -0.4031   0.01865   0.01349  -0.1376  0.8005  0.0222  -6.0114   0.0000   0.0000   0.0000  -0.1128
  -9.400  -0.3926   0.01840   0.01322  -0.1377  0.7991  0.0223  -5.9169   0.0000   0.0000   0.0000  -0.1224
  -9.300  -0.3821   0.01815   0.01294  -0.1378  0.7977  0.0225  -5.8276   0.0000   0.0000   0.0000  -0.1326
  -9.200  -0.3716   0.01790   0.01265  -0.1379  0.7962  0.0227  -5.7425   0.0000   0.0000   0.0000  -0.1434
  -9.100  -0.3610   0.01765   0.01236  -0.1380  0.7949  0.0229  -5.6581   0.0000   0.0000   0.0000  -0.1548
  -9.000  -0.3504   0.01740   0.01207  -0.1381  0.7936  0.0232  -5.5741   0.0000   0.0000   0.0000  -0.1670
  -8.900  -0.3397   0.01718   0.01180  -0.1382  0.7925  0.0234  -5.4901   0.0000   0.0000   0.0000  -0.1800
  -8.800  -0.3290   0.01695   0.01152  -0.1383  0.7914  0.0237  -5.4071   0.0000   0.0000   0.0000  -0.1939
  -8.700  -0.3182   0.01673   0.01124  -0.1384  0.7902  0.0239  -5.3247   0.0000   0.0000   0.0000  -0.2088
  -8.600  -0.3073   0.01652   0.01098  -0.1385  0.7888  0.0242  -5.2427   0.0000   0.0000   0.0000  -0.2249
  -8.500  -0.2964   0.01633   0.01074  -0.1386  0.7874  0.0244  -5.1603   0.0000   0.0000   0.0000  -0.2423
  -8.400  -0.2854   0.01616   0.01052  -0.1387  0.7861  0.0245  -5.0774   0.0000   0.0000   0.0000  -0.2612
  -8.300  -0.2753   0.01569   0.01000  -0.1388  0.7848  0.0248  -5.0099   0.0000   0.0000   0.0000  -0.2799
  -8.200  -0.2651   0.01526   0.00954  -0.1389  0.7836  0.0251  -4.9375   0.0000   0.0000   0.0000  -0.3001
  -8.100  -0.2544   0.01501   0.00927  -0.1389  0.7826  0.0253  -4.8556   0.0000   0.0000   0.0000  -0.3230
  -8.000  -0.2435   0.01482   0.00906  -0.1390  0.7815  0.0256  -4.7712   0.0000   0.0000   0.0000  -0.3486
  -7.900  -0.2325   0.01465   0.00887  -0.1391  0.7803  0.0258  -4.6866   0.0000   0.0000   0.0000  -0.3767
  -7.800  -0.2215   0.01448   0.00870  -0.1392  0.7789  0.0261  -4.6027   0.0000   0.0000   0.0000  -0.4079
  -7.700  -0.2104   0.01431   0.00851  -0.1393  0.7775  0.0263  -4.5198   0.0000   0.0000   0.0000  -0.4423
  -7.600  -0.1993   0.01414   0.00832  -0.1394  0.7762  0.0266  -4.4381   0.0000   0.0000   0.0000  -0.4806
  -7.500  -0.1882   0.01398   0.00813  -0.1394  0.7750  0.0269  -4.3576   0.0000   0.0000   0.0000  -0.5235
  -7.400  -0.1771   0.01381   0.00792  -0.1395  0.7739  0.0272  -4.2780   0.0000   0.0000   0.0000  -0.5719
  -7.300  -0.1660   0.01365   0.00772  -0.1396  0.7728  0.0275  -4.1991   0.0000   0.0000   0.0000  -0.6269
  -7.200  -0.1547   0.01352   0.00754  -0.1396  0.7718  0.0278  -4.1202   0.0000   0.0000   0.0000  -0.6902
  -7.100  -0.1435   0.01339   0.00738  -0.1397  0.7705  0.0281  -4.0407   0.0000   0.0000   0.0000  -0.7638
  -7.000  -0.1321   0.01329   0.00726  -0.1398  0.7692  0.0283  -3.9604   0.0000   0.0000   0.0000  -0.8509
  -6.900  -0.1216   0.01291   0.00686  -0.1398  0.7678  0.0288  -3.8918   0.0000   0.0000   0.0000  -0.9456
  -6.800  -0.1106   0.01271   0.00667  -0.1399  0.7666  0.0293  -3.8134   0.0000   0.0000   0.0000  -1.0646
  -6.700  -0.0994   0.01258   0.00653  -0.1400  0.7654  0.0296  -3.7331   0.0000   0.0000   0.0000  -1.2128
  -6.600  -0.0881   0.01246   0.00639  -0.1401  0.7642  0.0300  -3.6536   0.0000   0.0000   0.0000  -1.3999
  -6.500  -0.0768   0.01234   0.00626  -0.1402  0.7632  0.0304  -3.5785   0.0000   0.0000   0.0000  -1.6424
  -6.400  -0.0655   0.01223   0.00611  -0.1402  0.7622  0.0308  -3.5080   0.0000   0.0000   0.0000  -1.9698
  -6.300  -0.0541   0.01210   0.00597  -0.1403  0.7609  0.0313  -3.4386   0.0000   0.0000   0.0000  -2.4330
  -6.200  -0.0428   0.01198   0.00584  -0.1404  0.7596  0.0317  -3.3698   0.0000   0.0000   0.0000  -3.1432
  -6.100  -0.0314   0.01188   0.00570  -0.1404  0.7583  0.0321  -3.3012   0.0000   0.0000   0.0000  -4.3728
  -6.000  -0.0200   0.01179   0.00559  -0.1405  0.7570  0.0324  -3.2322   0.0000   0.0000   0.0000  -7.0245
  -5.900  -0.0091   0.01151   0.00530  -0.1406  0.7558  0.0330  -3.1701   0.0000   0.0000   0.0000  -15.7377
  -5.800   0.0022   0.01136   0.00515  -0.1407  0.7546  0.0336  -3.1014   0.0000   0.0000   0.0000  66.9295
  -5.700   0.0136   0.01126   0.00504  -0.1408  0.7536  0.0341  -3.0318   0.0000   0.0000   0.0000  10.9564
  -5.600   0.0250   0.01118   0.00494  -0.1408  0.7526  0.0347  -2.9626   0.0000   0.0000   0.0000   6.0550
  -5.500   0.0364   0.01109   0.00484  -0.1409  0.7513  0.0353  -2.8944   0.0000   0.0000   0.0000   4.2345
  -5.400   0.0479   0.01101   0.00475  -0.1410  0.7499  0.0360  -2.8271   0.0000   0.0000   0.0000   3.2815
  -5.300   0.0594   0.01094   0.00466  -0.1410  0.7485  0.0366  -2.7601   0.0000   0.0000   0.0000   2.6933
  -5.200   0.0706   0.01076   0.00447  -0.1411  0.7472  0.0374  -2.6971   0.0000   0.0000   0.0000   2.3054
  -5.100   0.0819   0.01063   0.00435  -0.1412  0.7460  0.0382  -2.6309   0.0000   0.0000   0.0000   2.0206
  -5.000   0.0934   0.01055   0.00426  -0.1413  0.7449  0.0390  -2.5644   0.0000   0.0000   0.0000   1.8032
  -4.900   0.1049   0.01047   0.00417  -0.1414  0.7438  0.0398  -2.5025   0.0000   0.0000   0.0000   1.6328
  -4.800   0.1165   0.01041   0.00407  -0.1415  0.7428  0.0406  -2.4434   0.0000   0.0000   0.0000   1.4955
  -4.700   0.1280   0.01036   0.00400  -0.1415  0.7415  0.0414  -2.3847   0.0000   0.0000   0.0000   1.3831
  -4.600   0.1393   0.01018   0.00385  -0.1416  0.7401  0.0425  -2.3285   0.0000   0.0000   0.0000   1.2916
  -4.500   0.1507   0.01009   0.00376  -0.1417  0.7387  0.0435  -2.2693   0.0000   0.0000   0.0000   1.2125
  -4.400   0.1622   0.01002   0.00369  -0.1418  0.7374  0.0446  -2.2107   0.0000   0.0000   0.0000   1.1441
  -4.300   0.1738   0.00997   0.00361  -0.1419  0.7361  0.0457  -2.1529   0.0000   0.0000   0.0000   1.0846
  -4.200   0.1852   0.00987   0.00351  -0.1419  0.7349  0.0469  -2.0963   0.0000   0.0000   0.0000   1.0328
  -4.100   0.1967   0.00978   0.00342  -0.1420  0.7338  0.0483  -2.0386   0.0000   0.0000   0.0000   0.9872
  -4.000   0.2083   0.00974   0.00336  -0.1421  0.7327  0.0498  -1.9809   0.0000   0.0000   0.0000   0.9462
  -3.900   0.2199   0.00969   0.00330  -0.1422  0.7314  0.0512  -1.9244   0.0000   0.0000   0.0000   0.9096
  -3.800   0.2313   0.00958   0.00321  -0.1423  0.7300  0.0529  -1.8692   0.0000   0.0000   0.0000   0.8770
  -3.700   0.2428   0.00951   0.00315  -0.1424  0.7286  0.0547  -1.8132   0.0000   0.0000   0.0000   0.8473
  -3.600   0.2543   0.00946   0.00309  -0.1424  0.7272  0.0565  -1.7581   0.0000   0.0000   0.0000   0.8201
  -3.500   0.2658   0.00937   0.00301  -0.1425  0.7259  0.0586  -1.7048   0.0000   0.0000   0.0000   0.7954
  -3.400   0.2774   0.00931   0.00294  -0.1426  0.7247  0.0609  -1.6545   0.0000   0.0000   0.0000   0.7727
  -3.300   0.2890   0.00926   0.00288  -0.1427  0.7236  0.0634  -1.6049   0.0000   0.0000   0.0000   0.7517
  -3.200   0.3005   0.00920   0.00282  -0.1428  0.7225  0.0663  -1.5551   0.0000   0.0000   0.0000   0.7325
  -3.100   0.3120   0.00913   0.00277  -0.1429  0.7210  0.0695  -1.5063   0.0000   0.0000   0.0000   0.7147
  -3.000   0.3235   0.00906   0.00272  -0.1429  0.7194  0.0732  -1.4575   0.0000   0.0000   0.0000   0.6982
  -2.900   0.3350   0.00899   0.00267  -0.1430  0.7180  0.0774  -1.4092   0.0000   0.0000   0.0000   0.6828
  -2.800   0.3465   0.00893   0.00262  -0.1431  0.7165  0.0821  -1.3612   0.0000   0.0000   0.0000   0.6684
  -2.700   0.3580   0.00887   0.00257  -0.1432  0.7152  0.0877  -1.3133   0.0000   0.0000   0.0000   0.6549
  -2.600   0.3696   0.00880   0.00252  -0.1433  0.7140  0.0943  -1.2659   0.0000   0.0000   0.0000   0.6422
  -2.500   0.3811   0.00875   0.00248  -0.1434  0.7128  0.1019  -1.2187   0.0000   0.0000   0.0000   0.6304
  -2.400   0.3926   0.00869   0.00245  -0.1435  0.7114  0.1104  -1.1721   0.0000   0.0000   0.0000   0.6192
  -2.300   0.4040   0.00861   0.00242  -0.1436  0.7098  0.1199  -1.1259   0.0000   0.0000   0.0000   0.6088
  -2.200   0.4155   0.00854   0.00239  -0.1437  0.7083  0.1304  -1.0800   0.0000   0.0000   0.0000   0.5989
  -2.100   0.4270   0.00848   0.00236  -0.1438  0.7068  0.1417  -1.0345   0.0000   0.0000   0.0000   0.5895
  -1.900   0.4500   0.00836   0.00230  -0.1440  0.7041  0.1660  -0.9511   0.0000   0.0000   0.0000   0.5721
  -1.800   0.4616   0.00831   0.00228  -0.1441  0.7029  0.1790  -0.9100   0.0000   0.0000   0.0000   0.5641
  -1.700   0.4731   0.00826   0.00226  -0.1442  0.7015  0.1922  -0.8693   0.0000   0.0000   0.0000   0.5565
  -1.600   0.4845   0.00820   0.00225  -0.1443  0.6999  0.2061  -0.8292   0.0000   0.0000   0.0000   0.5492
  -1.500   0.4959   0.00814   0.00224  -0.1444  0.6982  0.2212  -0.8354   0.0000   0.0000   0.0000   0.5423
  -1.400   0.5074   0.00808   0.00222  -0.1445  0.6967  0.2365  -0.8429   0.0000   0.0000   0.0000   0.5357
  -1.300   0.5189   0.00802   0.00221  -0.1446  0.6952  0.2523  -0.8504   0.0000   0.0000   0.0000   0.5294
  -1.200   0.5304   0.00798   0.00219  -0.1446  0.6938  0.2689  -0.8579   0.0000   0.0000   0.0000   0.5233
  -1.100   0.5419   0.00793   0.00218  -0.1448  0.6925  0.2867  -0.8659   0.0000   0.0000   0.0000   0.5175
  -1.000   0.5533   0.00787   0.00217  -0.1448  0.6909  0.3055  -0.8737   0.0000   0.0000   0.0000   0.5119
  -0.900   0.5647   0.00781   0.00218  -0.1449  0.6891  0.3257  -0.8816   0.0000   0.0000   0.0000   0.5066
  -0.800   0.5761   0.00775   0.00217  -0.1450  0.6874  0.3461  -0.8895   0.0000   0.0000   0.0000   0.5015
  -0.700   0.5875   0.00769   0.00217  -0.1451  0.6857  0.3678  -0.8976   0.0000   0.0000   0.0000   0.4966
  -0.600   0.5989   0.00763   0.00217  -0.1452  0.6842  0.3910  -0.9058   0.0000   0.0000   0.0000   0.4919
  -0.500   0.6104   0.00758   0.00216  -0.1453  0.6828  0.4154  -0.9139   0.0000   0.0000   0.0000   0.4873
  -0.400   0.6218   0.00753   0.00217  -0.1454  0.6813  0.4399  -0.9222   0.0000   0.0000   0.0000   0.4829
  -0.300   0.6331   0.00746   0.00219  -0.1455  0.6795  0.4654  -0.9304   0.0000   0.0000   0.0000   0.4787
  -0.200   0.6444   0.00740   0.00220  -0.1456  0.6777  0.4908  -0.9387   0.0000   0.0000   0.0000   0.4746
  -0.100   0.6558   0.00735   0.00221  -0.1456  0.6759  0.5161  -0.9471   0.0000   0.0000   0.0000   0.4706
   0.000   0.6671   0.00730   0.00222  -0.1457  0.6743  0.5413  -0.9554   0.0000   0.0000   0.0000   0.4668
   0.100   0.6784   0.00726   0.00223  -0.1457  0.6728  0.5661  -0.9639   0.0000   0.0000   0.0000   0.4630
   0.200   0.6897   0.00722   0.00224  -0.1458  0.6713  0.5917  -0.9724   0.0000   0.0000   0.0000   0.4594
   0.300   0.7008   0.00717   0.00227  -0.1458  0.6694  0.6178  -0.9811   0.0000   0.0000   0.0000   0.4559
   0.400   0.7120   0.00712   0.00230  -0.1458  0.6674  0.6443  -0.9898   0.0000   0.0000   0.0000   0.4525
   0.500   0.7231   0.00708   0.00232  -0.1458  0.6655  0.6688  -0.9985   0.0000   0.0000   0.0000   0.4492
   0.600   0.7342   0.00706   0.00233  -0.1458  0.6638  0.6904  -1.0074   0.0000   0.0000   0.0000   0.4460
   0.700   0.7453   0.00704   0.00235  -0.1457  0.6621  0.7104  -1.0167   0.0000   0.0000   0.0000   0.4429
   0.800   0.7563   0.00702   0.00237  -0.1457  0.6604  0.7287  -1.0259   0.0000   0.0000   0.0000   0.4398
   0.900   0.7673   0.00700   0.00240  -0.1456  0.6582  0.7466  -1.0350   0.0000   0.0000   0.0000   0.4368
   1.000   0.7782   0.00697   0.00242  -0.1456  0.6561  0.7642  -1.0443   0.0000   0.0000   0.0000   0.4339
   1.100   0.7891   0.00695   0.00244  -0.1455  0.6542  0.7813  -1.0537   0.0000   0.0000   0.0000   0.4311
   1.200   0.7999   0.00694   0.00245  -0.1453  0.6524  0.7979  -1.0630   0.0000   0.0000   0.0000   0.4283
   1.300   0.8105   0.00694   0.00247  -0.1452  0.6507  0.8142  -1.0723   0.0000   0.0000   0.0000   0.4256
   1.400   0.8211   0.00691   0.00250  -0.1450  0.6484  0.8308  -1.0816   0.0000   0.0000   0.0000   0.4230
   1.500   0.8314   0.00688   0.00252  -0.1448  0.6462  0.8477  -1.0910   0.0000   0.0000   0.0000   0.4204
   1.600   0.8414   0.00685   0.00253  -0.1445  0.6441  0.8662  -1.1005   0.0000   0.0000   0.0000   0.4178
   1.700   0.8509   0.00682   0.00254  -0.1441  0.6422  0.8881  -1.1097   0.0000   0.0000   0.0000   0.4153
   1.800   0.8597   0.00679   0.00255  -0.1434  0.6404  0.9160  -1.1184   0.0000   0.0000   0.0000   0.4127
   2.000   0.8868   0.00671   0.00253  -0.1444  0.6355  1.0000  -1.1423   0.0000   0.0000   0.0000   0.4084
   2.100   0.8982   0.00674   0.00255  -0.1445  0.6332  1.0000  -1.1531   0.0000   0.0000   0.0000   0.4063
   2.200   0.9095   0.00678   0.00256  -0.1445  0.6311  1.0000  -1.1641   0.0000   0.0000   0.0000   0.4042
   2.300   0.9209   0.00681   0.00257  -0.1446  0.6289  1.0000  -1.1753   0.0000   0.0000   0.0000   0.4022
   2.400   0.9322   0.00684   0.00260  -0.1447  0.6262  1.0000  -1.1865   0.0000   0.0000   0.0000   0.4002
   2.500   0.9435   0.00687   0.00262  -0.1447  0.6237  1.0000  -1.1980   0.0000   0.0000   0.0000   0.3983
   2.600   0.9547   0.00691   0.00264  -0.1448  0.6213  1.0000  -1.2095   0.0000   0.0000   0.0000   0.3964
   2.700   0.9659   0.00695   0.00266  -0.1448  0.6191  1.0000  -1.2212   0.0000   0.0000   0.0000   0.3945
   2.800   0.9773   0.00697   0.00268  -0.1449  0.6163  1.0000  -1.2331   0.0000   0.0000   0.0000   0.3927
   2.900   0.9885   0.00701   0.00271  -0.1449  0.6136  1.0000  -1.2450   0.0000   0.0000   0.0000   0.3910
   3.000   0.9996   0.00705   0.00273  -0.1449  0.6110  1.0000  -1.2568   0.0000   0.0000   0.0000   0.3892
   3.100   1.0106   0.00710   0.00276  -0.1449  0.6087  1.0000  -1.2689   0.0000   0.0000   0.0000   0.3875
   3.200   1.0219   0.00713   0.00279  -0.1450  0.6057  1.0000  -1.2816   0.0000   0.0000   0.0000   0.3859
   3.300   1.0330   0.00717   0.00282  -0.1450  0.6028  1.0000  -1.2941   0.0000   0.0000   0.0000   0.3842
   3.400   1.0440   0.00721   0.00285  -0.1450  0.6000  1.0000  -1.3066   0.0000   0.0000   0.0000   0.3826
   3.500   1.0550   0.00726   0.00288  -0.1450  0.5974  1.0000  -1.3194   0.0000   0.0000   0.0000   0.3810
   3.600   1.0661   0.00730   0.00292  -0.1450  0.5942  1.0000  -1.3325   0.0000   0.0000   0.0000   0.3795
   3.700   1.0771   0.00734   0.00295  -0.1450  0.5910  1.0000  -1.3458   0.0000   0.0000   0.0000   0.3780
   3.800   1.0878   0.00740   0.00299  -0.1450  0.5882  1.0000  -1.3594   0.0000   0.0000   0.0000   0.3765
   3.900   1.0989   0.00744   0.00303  -0.1450  0.5849  1.0000  -1.3735   0.0000   0.0000   0.0000   0.3750
   4.000   1.1098   0.00749   0.00307  -0.1450  0.5814  1.0000  -1.3878   0.0000   0.0000   0.0000   0.3736
   4.100   1.1204   0.00755   0.00311  -0.1450  0.5782  1.0000  -1.4022   0.0000   0.0000   0.0000   0.3722
   4.200   1.1313   0.00760   0.00315  -0.1449  0.5748  1.0000  -1.4170   0.0000   0.0000   0.0000   0.3708
   4.300   1.1421   0.00765   0.00320  -0.1449  0.5710  1.0000  -1.4324   0.0000   0.0000   0.0000   0.3694
   4.400   1.1526   0.00772   0.00324  -0.1448  0.5675  1.0000  -1.4481   0.0000   0.0000   0.0000   0.3680
   4.500   1.1634   0.00778   0.00329  -0.1448  0.5639  1.0000  -1.4645   0.0000   0.0000   0.0000   0.3667
   4.600   1.1740   0.00783   0.00334  -0.1448  0.5599  1.0000  -1.4809   0.0000   0.0000   0.0000   0.3654
   4.700   1.1843   0.00791   0.00340  -0.1447  0.5562  1.0000  -1.4971   0.0000   0.0000   0.0000   0.3641
   4.800   1.1951   0.00796   0.00345  -0.1446  0.5521  1.0000  -1.5139   0.0000   0.0000   0.0000   0.3628
   4.900   1.2055   0.00803   0.00351  -0.1445  0.5480  1.0000  -1.5308   0.0000   0.0000   0.0000   0.3616
   5.000   1.2157   0.00812   0.00357  -0.1444  0.5441  1.0000  -1.5481   0.0000   0.0000   0.0000   0.3603
   5.100   1.2263   0.00818   0.00363  -0.1444  0.5396  1.0000  -1.5657   0.0000   0.0000   0.0000   0.3591
   5.200   1.2364   0.00826   0.00369  -0.1442  0.5354  1.0000  -1.5846   0.0000   0.0000   0.0000   0.3579
   5.300   1.2468   0.00833   0.00375  -0.1441  0.5311  1.0000  -1.6041   0.0000   0.0000   0.0000   0.3567
   5.400   1.2570   0.00841   0.00382  -0.1440  0.5266  1.0000  -1.6240   0.0000   0.0000   0.0000   0.3555
   5.500   1.2670   0.00851   0.00390  -0.1439  0.5223  1.0000  -1.6439   0.0000   0.0000   0.0000   0.3544
   5.600   1.2772   0.00858   0.00397  -0.1438  0.5175  1.0000  -1.6646   0.0000   0.0000   0.0000   0.3532
   5.700   1.2868   0.00869   0.00405  -0.1435  0.5128  1.0000  -1.6848   0.0000   0.0000   0.0000   0.3521
   5.800   1.2971   0.00877   0.00412  -0.1434  0.5075  1.0000  -1.7059   0.0000   0.0000   0.0000   0.3510
   5.900   1.3065   0.00888   0.00421  -0.1432  0.5025  1.0000  -1.7267   0.0000   0.0000   0.0000   0.3498
   6.000   1.3165   0.00897   0.00428  -0.1430  0.4971  1.0000  -1.7487   0.0000   0.0000   0.0000   0.3488
   6.100   1.3258   0.00909   0.00438  -0.1428  0.4919  1.0000  -1.7702   0.0000   0.0000   0.0000   0.3476
   6.200   1.3357   0.00918   0.00447  -0.1426  0.4865  1.0000  -1.7924   0.0000   0.0000   0.0000   0.3466
   6.300   1.3449   0.00931   0.00456  -0.1423  0.4813  1.0000  -1.8158   0.0000   0.0000   0.0000   0.3455
   6.400   1.3546   0.00941   0.00466  -0.1421  0.4760  1.0000  -1.8425   0.0000   0.0000   0.0000   0.3444
   6.500   1.3636   0.00954   0.00476  -0.1418  0.4706  1.0000  -1.8687   0.0000   0.0000   0.0000   0.3434
   6.600   1.3731   0.00964   0.00486  -0.1416  0.4651  1.0000  -1.8966   0.0000   0.0000   0.0000   0.3423
   6.700   1.3819   0.00978   0.00497  -0.1413  0.4597  1.0000  -1.9249   0.0000   0.0000   0.0000   0.3413
   6.800   1.3912   0.00990   0.00507  -0.1410  0.4540  1.0000  -1.9552   0.0000   0.0000   0.0000   0.3403
   7.000   1.4088   0.01017   0.00531  -0.1403  0.4423  1.0000  -2.0150   0.0000   0.0000   0.0000   0.3382
   7.100   1.4171   0.01033   0.00544  -0.1399  0.4362  1.0000  -2.0453   0.0000   0.0000   0.0000   0.3372
   7.200   1.4255   0.01048   0.00557  -0.1395  0.4295  1.0000  -2.0761   0.0000   0.0000   0.0000   0.3362
   7.300   1.4337   0.01064   0.00570  -0.1391  0.4228  1.0000  -2.1079   0.0000   0.0000   0.0000   0.3352
   7.400   1.4411   0.01083   0.00585  -0.1385  0.4161  1.0000  -2.1387   0.0000   0.0000   0.0000   0.3341
   7.500   1.4494   0.01098   0.00599  -0.1381  0.4091  1.0000  -2.1710   0.0000   0.0000   0.0000   0.3331
   7.600   1.4570   0.01116   0.00614  -0.1376  0.4027  1.0000  -2.2023   0.0000   0.0000   0.0000   0.3321
   7.700   1.4643   0.01134   0.00630  -0.1370  0.3961  1.0000  -2.2340   0.0000   0.0000   0.0000   0.3311
   7.800   1.4716   0.01151   0.00645  -0.1364  0.3898  1.0000  -2.2665   0.0000   0.0000   0.0000   0.3301
   7.900   1.4778   0.01171   0.00661  -0.1356  0.3836  1.0000  -2.2971   0.0000   0.0000   0.0000   0.3290
   8.000   1.4846   0.01189   0.00678  -0.1350  0.3768  1.0000  -2.3290   0.0000   0.0000   0.0000   0.3280
   8.100   1.4910   0.01209   0.00695  -0.1343  0.3705  1.0000  -2.3603   0.0000   0.0000   0.0000   0.3269
   8.200   1.4969   0.01232   0.00715  -0.1335  0.3640  1.0000  -2.3915   0.0000   0.0000   0.0000   0.3259
   8.300   1.5036   0.01252   0.00733  -0.1328  0.3575  1.0000  -2.4250   0.0000   0.0000   0.0000   0.3249
   8.400   1.5094   0.01276   0.00755  -0.1320  0.3513  1.0000  -2.4569   0.0000   0.0000   0.0000   0.3239
   8.500   1.5154   0.01299   0.00776  -0.1313  0.3448  1.0000  -2.4895   0.0000   0.0000   0.0000   0.3229
   8.600   1.5214   0.01323   0.00798  -0.1306  0.3387  1.0000  -2.5222   0.0000   0.0000   0.0000   0.3219
   8.800   1.5327   0.01375   0.00845  -0.1291  0.3259  1.0000  -2.5998   0.0000   0.0000   0.0000   0.3200
   8.900   1.5380   0.01403   0.00871  -0.1283  0.3196  1.0000  -2.6408   0.0000   0.0000   0.0000   0.3190
   9.000   1.5430   0.01433   0.00899  -0.1275  0.3132  1.0000  -2.6815   0.0000   0.0000   0.0000   0.3180
   9.100   1.5486   0.01462   0.00925  -0.1268  0.3068  1.0000  -2.7236   0.0000   0.0000   0.0000   0.3171
   9.200   1.5534   0.01494   0.00955  -0.1260  0.3007  1.0000  -2.7640   0.0000   0.0000   0.0000   0.3162
   9.300   1.5585   0.01527   0.00985  -0.1253  0.2941  1.0000  -2.8052   0.0000   0.0000   0.0000   0.3153
   9.400   1.5635   0.01559   0.01016  -0.1245  0.2879  1.0000  -2.8465   0.0000   0.0000   0.0000   0.3143
   9.500   1.5679   0.01597   0.01051  -0.1237  0.2817  1.0000  -2.8862   0.0000   0.0000   0.0000   0.3134
   9.600   1.5729   0.01631   0.01083  -0.1230  0.2752  1.0000  -2.9279   0.0000   0.0000   0.0000   0.3126
   9.700   1.5775   0.01668   0.01118  -0.1223  0.2691  1.0000  -2.9686   0.0000   0.0000   0.0000   0.3117
   9.800   1.5814   0.01710   0.01157  -0.1214  0.2628  1.0000  -3.0076   0.0000   0.0000   0.0000   0.3108
   9.900   1.5862   0.01747   0.01192  -0.1208  0.2563  1.0000  -3.0492   0.0000   0.0000   0.0000   0.3099
  10.000   1.5904   0.01789   0.01231  -0.1200  0.2503  1.0000  -3.0894   0.0000   0.0000   0.0000   0.3091
  10.200   1.5985   0.01875   0.01313  -0.1185  0.2379  1.0000  -3.1697   0.0000   0.0000   0.0000   0.3074
  10.300   1.6022   0.01921   0.01356  -0.1177  0.2317  1.0000  -3.2113   0.0000   0.0000   0.0000   0.3065
  10.400   1.6053   0.01971   0.01403  -0.1169  0.2253  1.0000  -3.2511   0.0000   0.0000   0.0000   0.3057
  10.500   1.6089   0.02019   0.01449  -0.1161  0.2185  1.0000  -3.2928   0.0000   0.0000   0.0000   0.3049
  10.600   1.6122   0.02069   0.01496  -0.1153  0.2119  1.0000  -3.3334   0.0000   0.0000   0.0000   0.3041
  10.700   1.6149   0.02123   0.01547  -0.1145  0.2053  1.0000  -3.3729   0.0000   0.0000   0.0000   0.3032
  10.900   1.6204   0.02233   0.01651  -0.1129  0.1922  1.0000  -3.4521   0.0000   0.0000   0.0000   0.3016
  11.000   1.6233   0.02288   0.01704  -0.1121  0.1861  1.0000  -3.4921   0.0000   0.0000   0.0000   0.3008
  11.100   1.6258   0.02346   0.01759  -0.1113  0.1805  1.0000  -3.5312   0.0000   0.0000   0.0000   0.3000
  11.200   1.6286   0.02402   0.01813  -0.1106  0.1748  1.0000  -3.5714   0.0000   0.0000   0.0000   0.2993
  11.300   1.6316   0.02457   0.01866  -0.1099  0.1697  1.0000  -3.6125   0.0000   0.0000   0.0000   0.2985
  11.400   1.6341   0.02517   0.01923  -0.1091  0.1648  1.0000  -3.6517   0.0000   0.0000   0.0000   0.2977
  11.500   1.6371   0.02573   0.01978  -0.1084  0.1598  1.0000  -3.6929   0.0000   0.0000   0.0000   0.2970
  11.600   1.6397   0.02631   0.02035  -0.1076  0.1551  1.0000  -3.7331   0.0000   0.0000   0.0000   0.2962
  11.700   1.6419   0.02694   0.02096  -0.1069  0.1504  1.0000  -3.7720   0.0000   0.0000   0.0000   0.2955
  11.800   1.6448   0.02752   0.02152  -0.1062  0.1458  1.0000  -3.8133   0.0000   0.0000   0.0000   0.2948
  11.900   1.6468   0.02816   0.02215  -0.1054  0.1415  1.0000  -3.8520   0.0000   0.0000   0.0000   0.2940
  12.000   1.6494   0.02877   0.02274  -0.1048  0.1370  1.0000  -3.8927   0.0000   0.0000   0.0000   0.2933
  12.100   1.6517   0.02940   0.02337  -0.1040  0.1331  1.0000  -3.9335   0.0000   0.0000   0.0000   0.2926
  12.200   1.6538   0.03005   0.02400  -0.1033  0.1290  1.0000  -3.9752   0.0000   0.0000   0.0000   0.2919
  12.300   1.6562   0.03068   0.02462  -0.1027  0.1252  1.0000  -4.0181   0.0000   0.0000   0.0000   0.2912
  12.400   1.6580   0.03136   0.02529  -0.1019  0.1214  1.0000  -4.0590   0.0000   0.0000   0.0000   0.2905
  12.500   1.6606   0.03199   0.02592  -0.1013  0.1178  1.0000  -4.1025   0.0000   0.0000   0.0000   0.2898
  12.700   1.6647   0.03335   0.02726  -0.1000  0.1108  1.0000  -4.1865   0.0000   0.0000   0.0000   0.2884
  12.900   1.6686   0.03475   0.02866  -0.0987  0.1042  1.0000  -4.2750   0.0000   0.0000   0.0000   0.2871
  13.100   1.6722   0.03620   0.03010  -0.0974  0.0980  1.0000  -4.3634   0.0000   0.0000   0.0000   0.2858
  13.200   1.6734   0.03699   0.03088  -0.0968  0.0950  1.0000  -4.4054   0.0000   0.0000   0.0000   0.2852
  13.300   1.6757   0.03770   0.03159  -0.0962  0.0921  1.0000  -4.4518   0.0000   0.0000   0.0000   0.2845
  13.400   1.6769   0.03851   0.03240  -0.0956  0.0892  1.0000  -4.4960   0.0000   0.0000   0.0000   0.2839
  13.500   1.6790   0.03924   0.03313  -0.0951  0.0865  1.0000  -4.5447   0.0000   0.0000   0.0000   0.2833
  13.600   1.6802   0.04006   0.03395  -0.0945  0.0838  1.0000  -4.5897   0.0000   0.0000   0.0000   0.2827
  13.700   1.6821   0.04082   0.03471  -0.0939  0.0813  1.0000  -4.6390   0.0000   0.0000   0.0000   0.2821
  13.800   1.6834   0.04164   0.03553  -0.0934  0.0788  1.0000  -4.6879   0.0000   0.0000   0.0000   0.2815
  13.900   1.6848   0.04247   0.03636  -0.0929  0.0765  1.0000  -4.7366   0.0000   0.0000   0.0000   0.2809
  14.000   1.6866   0.04326   0.03716  -0.0924  0.0742  1.0000  -4.7879   0.0000   0.0000   0.0000   0.2804
  14.100   1.6873   0.04417   0.03806  -0.0918  0.0722  1.0000  -4.8342   0.0000   0.0000   0.0000   0.2798
  14.200   1.6895   0.04494   0.03885  -0.0914  0.0701  1.0000  -4.8870   0.0000   0.0000   0.0000   0.2792
  14.300   1.6907   0.04581   0.03973  -0.0909  0.0681  1.0000  -4.9360   0.0000   0.0000   0.0000   0.2787
  14.400   1.6915   0.04673   0.04065  -0.0904  0.0664  1.0000  -4.9828   0.0000   0.0000   0.0000   0.2781
  14.500   1.6935   0.04753   0.04146  -0.0900  0.0646  1.0000  -5.0355   0.0000   0.0000   0.0000   0.2776
  14.600   1.6944   0.04845   0.04239  -0.0895  0.0629  1.0000  -5.0833   0.0000   0.0000   0.0000   0.2771
  14.700   1.6950   0.04940   0.04335  -0.0890  0.0613  1.0000  -5.1299   0.0000   0.0000   0.0000   0.2766
  14.800   1.6968   0.05024   0.04420  -0.0886  0.0597  1.0000  -5.1822   0.0000   0.0000   0.0000   0.2760
  14.900   1.6976   0.05119   0.04516  -0.0882  0.0582  1.0000  -5.2301   0.0000   0.0000   0.0000   0.2755
  15.100   1.6995   0.05309   0.04708  -0.0874  0.0554  1.0000  -5.3274   0.0000   0.0000   0.0000   0.2746
  15.200   1.7006   0.05403   0.04805  -0.0870  0.0540  1.0000  -5.3765   0.0000   0.0000   0.0000   0.2741
  15.300   1.7008   0.05507   0.04909  -0.0866  0.0528  1.0000  -5.4221   0.0000   0.0000   0.0000   0.2736
  15.400   1.7014   0.05609   0.05012  -0.0863  0.0516  1.0000  -5.4692   0.0000   0.0000   0.0000   0.2731
  15.500   1.7028   0.05700   0.05106  -0.0859  0.0503  1.0000  -5.5207   0.0000   0.0000   0.0000   0.2727
  15.600   1.7033   0.05803   0.05210  -0.0856  0.0492  1.0000  -5.5677   0.0000   0.0000   0.0000   0.2722
  15.700   1.7029   0.05915   0.05323  -0.0852  0.0481  1.0000  -5.6110   0.0000   0.0000   0.0000   0.2718
  15.800   1.7035   0.06018   0.05428  -0.0849  0.0471  1.0000  -5.6585   0.0000   0.0000   0.0000   0.2713
  15.900   1.7047   0.06116   0.05528  -0.0846  0.0460  1.0000  -5.7090   0.0000   0.0000   0.0000   0.2709
  16.000   1.7051   0.06222   0.05636  -0.0843  0.0450  1.0000  -5.7560   0.0000   0.0000   0.0000   0.2705
  16.100   1.7047   0.06338   0.05754  -0.0840  0.0440  1.0000  -5.7993   0.0000   0.0000   0.0000   0.2701
  16.200   1.7041   0.06458   0.05875  -0.0838  0.0432  1.0000  -5.8413   0.0000   0.0000   0.0000   0.2697
  16.300   1.7055   0.06555   0.05975  -0.0835  0.0422  1.0000  -5.8933   0.0000   0.0000   0.0000   0.2693
  16.400   1.7058   0.06665   0.06087  -0.0833  0.0412  1.0000  -5.9401   0.0000   0.0000   0.0000   0.2689
  16.500   1.7055   0.06783   0.06208  -0.0831  0.0404  1.0000  -5.9839   0.0000   0.0000   0.0000   0.2685
  16.600   1.7043   0.06911   0.06337  -0.0828  0.0396  1.0000  -6.0234   0.0000   0.0000   0.0000   0.2682
  16.700   1.7042   0.07028   0.06456  -0.0826  0.0388  1.0000  -6.0678   0.0000   0.0000   0.0000   0.2678
  16.800   1.7049   0.07135   0.06566  -0.0824  0.0379  1.0000  -6.1167   0.0000   0.0000   0.0000   0.2674
  16.900   1.7046   0.07254   0.06688  -0.0822  0.0371  1.0000  -6.1609   0.0000   0.0000   0.0000   0.2671
  17.000   1.7037   0.07381   0.06817  -0.0821  0.0364  1.0000  -6.2020   0.0000   0.0000   0.0000   0.2668
  17.100   1.7021   0.07519   0.06956  -0.0819  0.0357  1.0000  -6.2391   0.0000   0.0000   0.0000   0.2665
  17.200   1.7011   0.07650   0.07090  -0.0818  0.0350  1.0000  -6.2791   0.0000   0.0000   0.0000   0.2662
  17.300   1.7016   0.07763   0.07206  -0.0816  0.0343  1.0000  -6.3270   0.0000   0.0000   0.0000   0.2658
  17.400   1.7011   0.07890   0.07335  -0.0815  0.0336  1.0000  -6.3699   0.0000   0.0000   0.0000   0.2656
  17.500   1.7002   0.08021   0.07469  -0.0814  0.0329  1.0000  -6.4105   0.0000   0.0000   0.0000   0.2653
  17.600   1.6984   0.08165   0.07615  -0.0814  0.0323  1.0000  -6.4465   0.0000   0.0000   0.0000   0.2650
  17.700   1.6959   0.08319   0.07770  -0.0813  0.0318  1.0000  -6.4787   0.0000   0.0000   0.0000   0.2648
  17.800   1.6953   0.08449   0.07904  -0.0812  0.0312  1.0000  -6.5202   0.0000   0.0000   0.0000   0.2645
  17.900   1.6950   0.08575   0.08033  -0.0812  0.0306  1.0000  -6.5638   0.0000   0.0000   0.0000   0.2643
  18.000   1.6941   0.08708   0.08169  -0.0812  0.0300  1.0000  -6.6045   0.0000   0.0000   0.0000   0.2640
  18.100   1.6924   0.08852   0.08316  -0.0812  0.0294  1.0000  -6.6408   0.0000   0.0000   0.0000   0.2638
  18.200   1.6905   0.09001   0.08468  -0.0812  0.0289  1.0000  -6.6754   0.0000   0.0000   0.0000   0.2636
  18.300   1.6876   0.09164   0.08633  -0.0812  0.0285  1.0000  -6.7047   0.0000   0.0000   0.0000   0.2635
  18.400   1.6844   0.09333   0.08804  -0.0813  0.0281  1.0000  -6.7316   0.0000   0.0000   0.0000   0.2634
  18.500   1.6841   0.09463   0.08938  -0.0814  0.0276  1.0000  -6.7746   0.0000   0.0000   0.0000   0.2632
  18.600   1.6832   0.09600   0.09079  -0.0815  0.0271  1.0000  -6.8146   0.0000   0.0000   0.0000   0.2630
  18.700   1.6818   0.09746   0.09228  -0.0816  0.0267  1.0000  -6.8514   0.0000   0.0000   0.0000   0.2628
  18.800   1.6799   0.09900   0.09385  -0.0817  0.0262  1.0000  -6.8852   0.0000   0.0000   0.0000   0.2627
  18.900   1.6777   0.10057   0.09545  -0.0819  0.0258  1.0000  -6.9174   0.0000   0.0000   0.0000   0.2626
  19.000   1.6748   0.10226   0.09716  -0.0821  0.0255  1.0000  -6.9454   0.0000   0.0000   0.0000   0.2625
  19.100   1.6714   0.10400   0.09893  -0.0823  0.0251  1.0000  -6.9703   0.0000   0.0000   0.0000   0.2625
  19.300   1.6661   0.10732   0.10231  -0.0827  0.0245  1.0000  -7.0270   0.0000   0.0000   0.0000   0.2624
  19.400   1.6648   0.10879   0.10383  -0.0830  0.0241  1.0000  -7.0631   0.0000   0.0000   0.0000   0.2623
  19.500   1.6634   0.11029   0.10536  -0.0832  0.0238  1.0000  -7.0985   0.0000   0.0000   0.0000   0.2622
  19.600   1.6614   0.11187   0.10698  -0.0835  0.0234  1.0000  -7.1305   0.0000   0.0000   0.0000   0.2622
  19.700   1.6592   0.11351   0.10865  -0.0838  0.0231  1.0000  -7.1608   0.0000   0.0000   0.0000   0.2622
  19.800   1.6567   0.11519   0.11036  -0.0841  0.0228  1.0000  -7.1892   0.0000   0.0000   0.0000   0.2622
  19.900   1.6538   0.11693   0.11213  -0.0845  0.0225  1.0000  -7.2149   0.0000   0.0000   0.0000   0.2623
  20.000   1.6506   0.11874   0.11396  -0.0850  0.0223  1.0000  -7.2381   0.0000   0.0000   0.0000   0.2624


