xflr5 v6.57

 Calculated polar for: wine

 1 1 Reynolds number fixed          Mach number fixed         

 xtrf =   1.000 (top)        1.000 (bottom)
 Mach =   0.000     Re =     0.720 e 6     Ncrit =   9.000

  alpha     CL        CD       CDp       Cm    Top Xtr Bot Xtr   Cpmin    Chinge    XCp    
 ------- -------- --------- --------- -------- ------- ------- -------- --------- ---------
 -10.000  -0.2209   0.08156   0.07882  -0.0815  0.8158  0.0245  -2.8848   0.0000   0.0000   0.0000  -0.1531
  -9.900  -0.2168   0.08094   0.07820  -0.0818  0.8142  0.0244  -2.8357   0.0000   0.0000   0.0000  -0.1614
  -9.800  -0.2140   0.07996   0.07721  -0.0823  0.8127  0.0243  -2.8126   0.0000   0.0000   0.0000  -0.1688
  -9.700  -0.2119   0.07876   0.07600  -0.0830  0.8113  0.0242  -2.8043   0.0000   0.0000   0.0000  -0.1756
  -9.600  -0.2109   0.07733   0.07455  -0.0838  0.8100  0.0241  -2.8124   0.0000   0.0000   0.0000  -0.1813
  -9.500  -0.2114   0.07551   0.07274  -0.0849  0.8085  0.0239  -2.8445   0.0000   0.0000   0.0000  -0.1853
  -9.400  -0.2150   0.07295   0.07019  -0.0867  0.8068  0.0237  -2.9249   0.0000   0.0000   0.0000  -0.1857
  -9.300  -0.3798   0.01896   0.01377  -0.1379  0.8007  0.0229  -5.7744   0.0000   0.0000   0.0000  -0.1350
  -9.200  -0.3694   0.01866   0.01342  -0.1380  0.7994  0.0231  -5.6923   0.0000   0.0000   0.0000  -0.1457
  -9.100  -0.3590   0.01837   0.01308  -0.1381  0.7980  0.0234  -5.6122   0.0000   0.0000   0.0000  -0.1572
  -9.000  -0.3485   0.01808   0.01275  -0.1382  0.7965  0.0236  -5.5323   0.0000   0.0000   0.0000  -0.1694
  -8.900  -0.3379   0.01781   0.01242  -0.1383  0.7951  0.0239  -5.4525   0.0000   0.0000   0.0000  -0.1825
  -8.800  -0.3272   0.01757   0.01211  -0.1384  0.7939  0.0241  -5.3725   0.0000   0.0000   0.0000  -0.1965
  -8.700  -0.3165   0.01735   0.01183  -0.1385  0.7927  0.0243  -5.2918   0.0000   0.0000   0.0000  -0.2116
  -8.600  -0.3055   0.01717   0.01158  -0.1386  0.7916  0.0245  -5.2099   0.0000   0.0000   0.0000  -0.2279
  -8.500  -0.2955   0.01672   0.01105  -0.1387  0.7905  0.0247  -5.1421   0.0000   0.0000   0.0000  -0.2442
  -8.400  -0.2856   0.01621   0.01053  -0.1388  0.7891  0.0251  -5.0720   0.0000   0.0000   0.0000  -0.2613
  -8.300  -0.2750   0.01592   0.01023  -0.1389  0.7877  0.0253  -4.9907   0.0000   0.0000   0.0000  -0.2808
  -8.200  -0.2642   0.01570   0.01000  -0.1390  0.7864  0.0255  -4.9066   0.0000   0.0000   0.0000  -0.3024
  -8.100  -0.2533   0.01551   0.00979  -0.1391  0.7851  0.0257  -4.8222   0.0000   0.0000   0.0000  -0.3260
  -8.000  -0.2424   0.01533   0.00958  -0.1391  0.7839  0.0260  -4.7385   0.0000   0.0000   0.0000  -0.3519
  -7.900  -0.2314   0.01515   0.00938  -0.1392  0.7828  0.0262  -4.6558   0.0000   0.0000   0.0000  -0.3803
  -7.800  -0.2204   0.01498   0.00916  -0.1393  0.7818  0.0265  -4.5744   0.0000   0.0000   0.0000  -0.4116
  -7.700  -0.2094   0.01479   0.00895  -0.1394  0.7806  0.0268  -4.4944   0.0000   0.0000   0.0000  -0.4462
  -7.600  -0.1984   0.01460   0.00873  -0.1394  0.7792  0.0271  -4.4154   0.0000   0.0000   0.0000  -0.4847
  -7.500  -0.1873   0.01441   0.00851  -0.1395  0.7778  0.0274  -4.3370   0.0000   0.0000   0.0000  -0.5279
  -7.400  -0.1762   0.01423   0.00829  -0.1396  0.7765  0.0277  -4.2591   0.0000   0.0000   0.0000  -0.5767
  -7.300  -0.1650   0.01407   0.00809  -0.1396  0.7753  0.0280  -4.1813   0.0000   0.0000   0.0000  -0.6323
  -7.200  -0.1538   0.01394   0.00791  -0.1397  0.7741  0.0282  -4.1024   0.0000   0.0000   0.0000  -0.6966
  -7.100  -0.1429   0.01368   0.00761  -0.1398  0.7731  0.0286  -4.0295   0.0000   0.0000   0.0000  -0.7684
  -7.000  -0.1323   0.01337   0.00728  -0.1399  0.7720  0.0290  -3.9561   0.0000   0.0000   0.0000  -0.8502
  -6.900  -0.1212   0.01320   0.00712  -0.1399  0.7708  0.0294  -3.8760   0.0000   0.0000   0.0000  -0.9506
  -6.800  -0.1100   0.01307   0.00699  -0.1400  0.7694  0.0298  -3.7954   0.0000   0.0000   0.0000  -1.0725
  -6.700  -0.0988   0.01294   0.00686  -0.1401  0.7681  0.0302  -3.7158   0.0000   0.0000   0.0000  -1.2228
  -6.600  -0.0875   0.01281   0.00671  -0.1402  0.7668  0.0306  -3.6379   0.0000   0.0000   0.0000  -1.4121
  -6.500  -0.0762   0.01268   0.00655  -0.1402  0.7656  0.0310  -3.5634   0.0000   0.0000   0.0000  -1.6574
  -6.400  -0.0649   0.01255   0.00639  -0.1403  0.7645  0.0314  -3.4948   0.0000   0.0000   0.0000  -1.9888
  -6.300  -0.0536   0.01243   0.00623  -0.1404  0.7634  0.0318  -3.4265   0.0000   0.0000   0.0000  -2.4620
  -6.200  -0.0422   0.01233   0.00609  -0.1404  0.7624  0.0322  -3.3581   0.0000   0.0000   0.0000  -3.1948
  -6.100  -0.0309   0.01218   0.00591  -0.1405  0.7612  0.0326  -3.2920   0.0000   0.0000   0.0000  -4.4469
  -6.000  -0.0201   0.01190   0.00565  -0.1406  0.7599  0.0331  -3.2287   0.0000   0.0000   0.0000  -6.9829
  -5.900  -0.0089   0.01176   0.00551  -0.1407  0.7585  0.0336  -3.1596   0.0000   0.0000   0.0000  -16.1363
  -5.800   0.0025   0.01164   0.00539  -0.1408  0.7572  0.0341  -3.0901   0.0000   0.0000   0.0000  59.1935
  -5.700   0.0138   0.01154   0.00528  -0.1408  0.7559  0.0347  -3.0215   0.0000   0.0000   0.0000  10.7411
  -5.600   0.0253   0.01144   0.00516  -0.1409  0.7548  0.0353  -2.9535   0.0000   0.0000   0.0000   5.9975
  -5.500   0.0367   0.01136   0.00505  -0.1410  0.7537  0.0360  -2.8861   0.0000   0.0000   0.0000   4.2023
  -5.400   0.0483   0.01130   0.00495  -0.1410  0.7527  0.0366  -2.8191   0.0000   0.0000   0.0000   3.2564
  -5.300   0.0595   0.01112   0.00476  -0.1411  0.7515  0.0373  -2.7561   0.0000   0.0000   0.0000   2.6918
  -5.200   0.0707   0.01098   0.00464  -0.1412  0.7501  0.0381  -2.6900   0.0000   0.0000   0.0000   2.3031
  -5.100   0.0821   0.01088   0.00455  -0.1413  0.7487  0.0388  -2.6234   0.0000   0.0000   0.0000   2.0179
  -5.000   0.0936   0.01079   0.00445  -0.1414  0.7474  0.0396  -2.5579   0.0000   0.0000   0.0000   1.8014
  -4.900   0.1050   0.01071   0.00435  -0.1414  0.7461  0.0405  -2.4965   0.0000   0.0000   0.0000   1.6316
  -4.800   0.1166   0.01065   0.00426  -0.1415  0.7450  0.0412  -2.4380   0.0000   0.0000   0.0000   1.4945
  -4.700   0.1279   0.01049   0.00409  -0.1416  0.7439  0.0422  -2.3819   0.0000   0.0000   0.0000   1.3845
  -4.600   0.1394   0.01040   0.00399  -0.1417  0.7429  0.0432  -2.3227   0.0000   0.0000   0.0000   1.2911
  -4.500   0.1509   0.01032   0.00392  -0.1418  0.7416  0.0442  -2.2639   0.0000   0.0000   0.0000   1.2119
  -4.400   0.1623   0.01025   0.00384  -0.1418  0.7402  0.0453  -2.2062   0.0000   0.0000   0.0000   1.1439
  -4.200   0.1852   0.01005   0.00365  -0.1420  0.7374  0.0478  -2.0926   0.0000   0.0000   0.0000   1.0334
  -4.100   0.1967   0.00999   0.00358  -0.1421  0.7361  0.0492  -2.0347   0.0000   0.0000   0.0000   0.9875
  -4.000   0.2083   0.00993   0.00351  -0.1421  0.7349  0.0506  -1.9778   0.0000   0.0000   0.0000   0.9465
  -3.900   0.2198   0.00985   0.00341  -0.1422  0.7338  0.0522  -1.9223   0.0000   0.0000   0.0000   0.9100
  -3.800   0.2313   0.00977   0.00333  -0.1423  0.7328  0.0538  -1.8660   0.0000   0.0000   0.0000   0.8771
  -3.700   0.2428   0.00971   0.00327  -0.1424  0.7314  0.0556  -1.8105   0.0000   0.0000   0.0000   0.8474
  -3.600   0.2543   0.00964   0.00320  -0.1425  0.7300  0.0575  -1.7562   0.0000   0.0000   0.0000   0.8204
  -3.500   0.2657   0.00955   0.00313  -0.1426  0.7285  0.0596  -1.7026   0.0000   0.0000   0.0000   0.7958
  -3.400   0.2773   0.00950   0.00307  -0.1426  0.7272  0.0619  -1.6527   0.0000   0.0000   0.0000   0.7730
  -3.300   0.2888   0.00942   0.00300  -0.1427  0.7258  0.0645  -1.6033   0.0000   0.0000   0.0000   0.7522
  -3.200   0.3003   0.00936   0.00294  -0.1428  0.7246  0.0675  -1.5537   0.0000   0.0000   0.0000   0.7328
  -3.100   0.3119   0.00929   0.00287  -0.1429  0.7235  0.0708  -1.5048   0.0000   0.0000   0.0000   0.7150
  -3.000   0.3235   0.00925   0.00282  -0.1430  0.7223  0.0746  -1.4560   0.0000   0.0000   0.0000   0.6983
  -2.900   0.3349   0.00916   0.00277  -0.1431  0.7208  0.0789  -1.4080   0.0000   0.0000   0.0000   0.6830
  -2.800   0.3464   0.00909   0.00273  -0.1431  0.7193  0.0837  -1.3603   0.0000   0.0000   0.0000   0.6686
  -2.700   0.3579   0.00903   0.00268  -0.1432  0.7178  0.0895  -1.3127   0.0000   0.0000   0.0000   0.6552
  -2.600   0.3694   0.00896   0.00263  -0.1433  0.7163  0.0962  -1.2654   0.0000   0.0000   0.0000   0.6425
  -2.500   0.3809   0.00889   0.00259  -0.1434  0.7150  0.1040  -1.2184   0.0000   0.0000   0.0000   0.6307
  -2.400   0.3924   0.00883   0.00254  -0.1435  0.7138  0.1129  -1.1717   0.0000   0.0000   0.0000   0.6195
  -2.300   0.4040   0.00877   0.00251  -0.1436  0.7127  0.1230  -1.1253   0.0000   0.0000   0.0000   0.6090
  -2.200   0.4154   0.00871   0.00248  -0.1437  0.7112  0.1339  -1.0796   0.0000   0.0000   0.0000   0.5991
  -2.100   0.4268   0.00864   0.00246  -0.1438  0.7096  0.1453  -1.0343   0.0000   0.0000   0.0000   0.5897
  -2.000   0.4383   0.00857   0.00244  -0.1439  0.7080  0.1577  -0.9925   0.0000   0.0000   0.0000   0.5809
  -1.900   0.4498   0.00851   0.00241  -0.1440  0.7065  0.1705  -0.9512   0.0000   0.0000   0.0000   0.5724
  -1.800   0.4613   0.00845   0.00238  -0.1441  0.7051  0.1836  -0.9102   0.0000   0.0000   0.0000   0.5644
  -1.700   0.4728   0.00839   0.00236  -0.1442  0.7038  0.1974  -0.8695   0.0000   0.0000   0.0000   0.5567
  -1.600   0.4843   0.00835   0.00234  -0.1443  0.7026  0.2120  -0.8291   0.0000   0.0000   0.0000   0.5494
  -1.500   0.4958   0.00829   0.00233  -0.1444  0.7011  0.2271  -0.8351   0.0000   0.0000   0.0000   0.5425
  -1.400   0.5072   0.00823   0.00232  -0.1445  0.6994  0.2430  -0.8426   0.0000   0.0000   0.0000   0.5359
  -1.300   0.5186   0.00817   0.00231  -0.1446  0.6978  0.2591  -0.8500   0.0000   0.0000   0.0000   0.5296
  -1.200   0.5301   0.00811   0.00230  -0.1447  0.6962  0.2765  -0.8575   0.0000   0.0000   0.0000   0.5235
  -1.100   0.5415   0.00805   0.00228  -0.1448  0.6947  0.2948  -0.8654   0.0000   0.0000   0.0000   0.5177
  -1.000   0.5530   0.00800   0.00227  -0.1449  0.6934  0.3146  -0.8734   0.0000   0.0000   0.0000   0.5121
  -0.900   0.5645   0.00795   0.00226  -0.1450  0.6921  0.3352  -0.8813   0.0000   0.0000   0.0000   0.5068
  -0.800   0.5758   0.00789   0.00227  -0.1451  0.6903  0.3562  -0.8892   0.0000   0.0000   0.0000   0.5017
  -0.700   0.5872   0.00782   0.00227  -0.1451  0.6885  0.3788  -0.8972   0.0000   0.0000   0.0000   0.4968
  -0.600   0.5986   0.00776   0.00227  -0.1452  0.6867  0.4028  -0.9053   0.0000   0.0000   0.0000   0.4920
  -0.500   0.6100   0.00770   0.00227  -0.1453  0.6851  0.4275  -0.9134   0.0000   0.0000   0.0000   0.4875
  -0.400   0.6213   0.00764   0.00227  -0.1454  0.6837  0.4526  -0.9217   0.0000   0.0000   0.0000   0.4831
  -0.300   0.6328   0.00759   0.00227  -0.1455  0.6823  0.4787  -0.9301   0.0000   0.0000   0.0000   0.4788
  -0.200   0.6441   0.00754   0.00229  -0.1456  0.6806  0.5043  -0.9384   0.0000   0.0000   0.0000   0.4747
  -0.100   0.6553   0.00748   0.00231  -0.1456  0.6787  0.5298  -0.9466   0.0000   0.0000   0.0000   0.4708
   0.000   0.6666   0.00743   0.00232  -0.1457  0.6769  0.5550  -0.9549   0.0000   0.0000   0.0000   0.4669
   0.100   0.6779   0.00738   0.00234  -0.1457  0.6752  0.5803  -0.9633   0.0000   0.0000   0.0000   0.4632
   0.200   0.6891   0.00733   0.00235  -0.1457  0.6736  0.6063  -0.9719   0.0000   0.0000   0.0000   0.4596
   0.300   0.7003   0.00729   0.00237  -0.1457  0.6722  0.6330  -0.9806   0.0000   0.0000   0.0000   0.4560
   0.400   0.7114   0.00726   0.00239  -0.1457  0.6704  0.6589  -0.9893   0.0000   0.0000   0.0000   0.4526
   0.500   0.7224   0.00722   0.00242  -0.1457  0.6684  0.6821  -0.9980   0.0000   0.0000   0.0000   0.4493
   0.600   0.7335   0.00718   0.00244  -0.1456  0.6664  0.7029  -1.0068   0.0000   0.0000   0.0000   0.4461
   0.700   0.7445   0.00716   0.00246  -0.1456  0.6646  0.7222  -1.0160   0.0000   0.0000   0.0000   0.4429
   0.800   0.7555   0.00714   0.00248  -0.1455  0.6629  0.7403  -1.0252   0.0000   0.0000   0.0000   0.4398
   0.900   0.7665   0.00714   0.00249  -0.1455  0.6613  0.7583  -1.0344   0.0000   0.0000   0.0000   0.4369
   1.000   0.7773   0.00711   0.00252  -0.1454  0.6592  0.7758  -1.0436   0.0000   0.0000   0.0000   0.4339
   1.100   0.7881   0.00708   0.00254  -0.1453  0.6570  0.7927  -1.0529   0.0000   0.0000   0.0000   0.4311
   1.200   0.7987   0.00706   0.00256  -0.1451  0.6550  0.8094  -1.0622   0.0000   0.0000   0.0000   0.4283
   1.300   0.8092   0.00704   0.00257  -0.1449  0.6531  0.8261  -1.0714   0.0000   0.0000   0.0000   0.4256
   1.400   0.8196   0.00703   0.00258  -0.1447  0.6514  0.8432  -1.0806   0.0000   0.0000   0.0000   0.4229
   1.500   0.8296   0.00700   0.00261  -0.1444  0.6493  0.8612  -1.0898   0.0000   0.0000   0.0000   0.4203
   1.600   0.8392   0.00696   0.00263  -0.1440  0.6471  0.8820  -1.0990   0.0000   0.0000   0.0000   0.4177
   1.700   0.8482   0.00692   0.00263  -0.1434  0.6449  0.9076  -1.1079   0.0000   0.0000   0.0000   0.4151
   1.800   0.8584   0.00686   0.00262  -0.1431  0.6429  0.9455  -1.1175   0.0000   0.0000   0.0000   0.4125
   1.900   0.8748   0.00684   0.00259  -0.1442  0.6410  1.0000  -1.1309   0.0000   0.0000   0.0000   0.4106
   2.000   0.8862   0.00687   0.00261  -0.1443  0.6387  1.0000  -1.1417   0.0000   0.0000   0.0000   0.4084
   2.100   0.8976   0.00689   0.00263  -0.1444  0.6362  1.0000  -1.1526   0.0000   0.0000   0.0000   0.4063
   2.200   0.9090   0.00692   0.00265  -0.1445  0.6338  1.0000  -1.1636   0.0000   0.0000   0.0000   0.4042
   2.300   0.9203   0.00695   0.00266  -0.1445  0.6316  1.0000  -1.1748   0.0000   0.0000   0.0000   0.4022
   2.400   0.9316   0.00700   0.00267  -0.1446  0.6295  1.0000  -1.1859   0.0000   0.0000   0.0000   0.4002
   2.500   0.9429   0.00702   0.00270  -0.1446  0.6269  1.0000  -1.1974   0.0000   0.0000   0.0000   0.3983
   2.600   0.9542   0.00705   0.00272  -0.1447  0.6242  1.0000  -1.2089   0.0000   0.0000   0.0000   0.3964
   2.700   0.9654   0.00709   0.00274  -0.1447  0.6218  1.0000  -1.2207   0.0000   0.0000   0.0000   0.3945
   2.800   0.9765   0.00713   0.00276  -0.1447  0.6196  1.0000  -1.2325   0.0000   0.0000   0.0000   0.3927
   2.900   0.9878   0.00716   0.00279  -0.1448  0.6169  1.0000  -1.2444   0.0000   0.0000   0.0000   0.3910
   3.000   0.9990   0.00719   0.00282  -0.1448  0.6141  1.0000  -1.2562   0.0000   0.0000   0.0000   0.3892
   3.100   1.0101   0.00723   0.00284  -0.1448  0.6115  1.0000  -1.2684   0.0000   0.0000   0.0000   0.3875
   3.200   1.0211   0.00729   0.00287  -0.1448  0.6091  1.0000  -1.2808   0.0000   0.0000   0.0000   0.3858
   3.300   1.0323   0.00731   0.00290  -0.1449  0.6062  1.0000  -1.2935   0.0000   0.0000   0.0000   0.3842
   3.400   1.0434   0.00735   0.00293  -0.1449  0.6032  1.0000  -1.3060   0.0000   0.0000   0.0000   0.3826
   3.500   1.0543   0.00740   0.00296  -0.1449  0.6004  1.0000  -1.3188   0.0000   0.0000   0.0000   0.3810
   3.600   1.0652   0.00745   0.00300  -0.1449  0.5978  1.0000  -1.3317   0.0000   0.0000   0.0000   0.3795
   3.700   1.0764   0.00749   0.00303  -0.1449  0.5945  1.0000  -1.3451   0.0000   0.0000   0.0000   0.3780
   3.800   1.0873   0.00753   0.00307  -0.1449  0.5913  1.0000  -1.3588   0.0000   0.0000   0.0000   0.3765
   3.900   1.0980   0.00759   0.00311  -0.1449  0.5884  1.0000  -1.3727   0.0000   0.0000   0.0000   0.3750
   4.000   1.1090   0.00764   0.00315  -0.1449  0.5851  1.0000  -1.3870   0.0000   0.0000   0.0000   0.3736
   4.100   1.1199   0.00768   0.00319  -0.1449  0.5817  1.0000  -1.4016   0.0000   0.0000   0.0000   0.3721
   4.200   1.1305   0.00774   0.00323  -0.1448  0.5784  1.0000  -1.4163   0.0000   0.0000   0.0000   0.3707
   4.300   1.1413   0.00780   0.00328  -0.1448  0.5750  1.0000  -1.4315   0.0000   0.0000   0.0000   0.3694
   4.400   1.1520   0.00785   0.00332  -0.1447  0.5712  1.0000  -1.4475   0.0000   0.0000   0.0000   0.3680
   4.500   1.1625   0.00792   0.00337  -0.1447  0.5676  1.0000  -1.4636   0.0000   0.0000   0.0000   0.3667
   4.600   1.1732   0.00797   0.00342  -0.1446  0.5639  1.0000  -1.4801   0.0000   0.0000   0.0000   0.3654
   4.700   1.1838   0.00803   0.00348  -0.1446  0.5599  1.0000  -1.4965   0.0000   0.0000   0.0000   0.3641
   4.800   1.1941   0.00811   0.00353  -0.1444  0.5563  1.0000  -1.5128   0.0000   0.0000   0.0000   0.3628
   4.900   1.2048   0.00817   0.00358  -0.1444  0.5521  1.0000  -1.5299   0.0000   0.0000   0.0000   0.3615
   5.000   1.2151   0.00824   0.00364  -0.1443  0.5480  1.0000  -1.5473   0.0000   0.0000   0.0000   0.3603
   5.100   1.2253   0.00832   0.00370  -0.1442  0.5440  1.0000  -1.5646   0.0000   0.0000   0.0000   0.3591
   5.200   1.2358   0.00838   0.00376  -0.1441  0.5396  1.0000  -1.5838   0.0000   0.0000   0.0000   0.3579
   5.300   1.2459   0.00847   0.00383  -0.1440  0.5354  1.0000  -1.6029   0.0000   0.0000   0.0000   0.3567
   5.400   1.2562   0.00854   0.00390  -0.1439  0.5311  1.0000  -1.6230   0.0000   0.0000   0.0000   0.3555
   5.500   1.2663   0.00862   0.00397  -0.1437  0.5265  1.0000  -1.6430   0.0000   0.0000   0.0000   0.3543
   5.600   1.2762   0.00872   0.00404  -0.1436  0.5222  1.0000  -1.6634   0.0000   0.0000   0.0000   0.3532
   5.700   1.2864   0.00880   0.00412  -0.1434  0.5172  1.0000  -1.6841   0.0000   0.0000   0.0000   0.3520
   5.800   1.2959   0.00891   0.00420  -0.1432  0.5126  1.0000  -1.7044   0.0000   0.0000   0.0000   0.3509
   5.900   1.3060   0.00899   0.00427  -0.1431  0.5072  1.0000  -1.7260   0.0000   0.0000   0.0000   0.3498
   6.100   1.3253   0.00919   0.00445  -0.1426  0.4968  1.0000  -1.7694   0.0000   0.0000   0.0000   0.3476
   6.300   1.3443   0.00941   0.00463  -0.1422  0.4863  1.0000  -1.8149   0.0000   0.0000   0.0000   0.3454
   6.400   1.3534   0.00954   0.00473  -0.1419  0.4811  1.0000  -1.8407   0.0000   0.0000   0.0000   0.3444
   6.500   1.3630   0.00964   0.00483  -0.1417  0.4757  1.0000  -1.8677   0.0000   0.0000   0.0000   0.3433
   6.600   1.3719   0.00978   0.00494  -0.1413  0.4704  1.0000  -1.8946   0.0000   0.0000   0.0000   0.3423
   6.700   1.3813   0.00988   0.00504  -0.1411  0.4648  1.0000  -1.9238   0.0000   0.0000   0.0000   0.3412
   6.900   1.3992   0.01014   0.00526  -0.1405  0.4536  1.0000  -1.9832   0.0000   0.0000   0.0000   0.3392
   7.000   1.4074   0.01030   0.00539  -0.1401  0.4480  1.0000  -2.0125   0.0000   0.0000   0.0000   0.3381
   7.100   1.4164   0.01043   0.00551  -0.1397  0.4418  1.0000  -2.0440   0.0000   0.0000   0.0000   0.3371
   7.200   1.4245   0.01059   0.00564  -0.1393  0.4356  1.0000  -2.0742   0.0000   0.0000   0.0000   0.3361
   7.300   1.4326   0.01075   0.00578  -0.1389  0.4288  1.0000  -2.1058   0.0000   0.0000   0.0000   0.3351
   7.400   1.4407   0.01091   0.00591  -0.1384  0.4221  1.0000  -2.1376   0.0000   0.0000   0.0000   0.3341
   7.500   1.4480   0.01110   0.00607  -0.1378  0.4155  1.0000  -2.1683   0.0000   0.0000   0.0000   0.3330
   7.600   1.4559   0.01126   0.00621  -0.1374  0.4086  1.0000  -2.2001   0.0000   0.0000   0.0000   0.3320
   7.700   1.4634   0.01144   0.00637  -0.1368  0.4022  1.0000  -2.2319   0.0000   0.0000   0.0000   0.3310
   7.800   1.4700   0.01163   0.00653  -0.1361  0.3958  1.0000  -2.2632   0.0000   0.0000   0.0000   0.3299
   7.900   1.4770   0.01180   0.00668  -0.1355  0.3895  1.0000  -2.2952   0.0000   0.0000   0.0000   0.3289
   8.000   1.4831   0.01201   0.00686  -0.1347  0.3832  1.0000  -2.3258   0.0000   0.0000   0.0000   0.3278
   8.100   1.4897   0.01220   0.00704  -0.1340  0.3765  1.0000  -2.3574   0.0000   0.0000   0.0000   0.3268
   8.200   1.4960   0.01241   0.00722  -0.1333  0.3702  1.0000  -2.3892   0.0000   0.0000   0.0000   0.3258
   8.400   1.5081   0.01286   0.00763  -0.1318  0.3573  1.0000  -2.4542   0.0000   0.0000   0.0000   0.3238
   8.500   1.5138   0.01311   0.00785  -0.1310  0.3511  1.0000  -2.4860   0.0000   0.0000   0.0000   0.3228
   8.600   1.5196   0.01335   0.00808  -0.1303  0.3447  1.0000  -2.5182   0.0000   0.0000   0.0000   0.3218
   8.700   1.5255   0.01360   0.00830  -0.1295  0.3385  1.0000  -2.5536   0.0000   0.0000   0.0000   0.3208
   8.800   1.5304   0.01389   0.00857  -0.1287  0.3323  1.0000  -2.5935   0.0000   0.0000   0.0000   0.3198
   8.900   1.5364   0.01415   0.00881  -0.1280  0.3257  1.0000  -2.6361   0.0000   0.0000   0.0000   0.3189
   9.000   1.5415   0.01445   0.00908  -0.1272  0.3195  1.0000  -2.6770   0.0000   0.0000   0.0000   0.3179
   9.100   1.5464   0.01476   0.00937  -0.1264  0.3130  1.0000  -2.7173   0.0000   0.0000   0.0000   0.3170
   9.200   1.5519   0.01506   0.00965  -0.1257  0.3067  1.0000  -2.7594   0.0000   0.0000   0.0000   0.3161
   9.300   1.5566   0.01540   0.00997  -0.1249  0.3005  1.0000  -2.7995   0.0000   0.0000   0.0000   0.3151
   9.400   1.5614   0.01574   0.01028  -0.1242  0.2939  1.0000  -2.8403   0.0000   0.0000   0.0000   0.3142
   9.500   1.5664   0.01608   0.01061  -0.1234  0.2877  1.0000  -2.8816   0.0000   0.0000   0.0000   0.3133
   9.600   1.5706   0.01647   0.01097  -0.1226  0.2816  1.0000  -2.9210   0.0000   0.0000   0.0000   0.3124
   9.700   1.5754   0.01683   0.01131  -0.1219  0.2751  1.0000  -2.9623   0.0000   0.0000   0.0000   0.3116
   9.800   1.5799   0.01722   0.01167  -0.1212  0.2689  1.0000  -3.0028   0.0000   0.0000   0.0000   0.3107
   9.900   1.5836   0.01765   0.01208  -0.1204  0.2627  1.0000  -3.0416   0.0000   0.0000   0.0000   0.3098
  10.000   1.5882   0.01804   0.01245  -0.1196  0.2562  1.0000  -3.0828   0.0000   0.0000   0.0000   0.3090
  10.100   1.5923   0.01847   0.01285  -0.1189  0.2501  1.0000  -3.1227   0.0000   0.0000   0.0000   0.3081
  10.200   1.5957   0.01894   0.01330  -0.1181  0.2440  1.0000  -3.1610   0.0000   0.0000   0.0000   0.3073
  10.300   1.6001   0.01936   0.01370  -0.1174  0.2377  1.0000  -3.2042   0.0000   0.0000   0.0000   0.3064
  10.400   1.6037   0.01984   0.01415  -0.1166  0.2315  1.0000  -3.2455   0.0000   0.0000   0.0000   0.3056
  10.500   1.6065   0.02036   0.01464  -0.1158  0.2252  1.0000  -3.2849   0.0000   0.0000   0.0000   0.3048
  10.600   1.6100   0.02085   0.01512  -0.1150  0.2184  1.0000  -3.3261   0.0000   0.0000   0.0000   0.3039
  10.700   1.6131   0.02137   0.01561  -0.1142  0.2117  1.0000  -3.3666   0.0000   0.0000   0.0000   0.3031
  10.800   1.6157   0.02193   0.01613  -0.1134  0.2053  1.0000  -3.4057   0.0000   0.0000   0.0000   0.3023
  11.000   1.6210   0.02306   0.01720  -0.1118  0.1922  1.0000  -3.4842   0.0000   0.0000   0.0000   0.3007
  11.100   1.6237   0.02363   0.01775  -0.1110  0.1863  1.0000  -3.5239   0.0000   0.0000   0.0000   0.2999
  11.200   1.6261   0.02422   0.01831  -0.1102  0.1806  1.0000  -3.5627   0.0000   0.0000   0.0000   0.2992
  11.300   1.6288   0.02479   0.01887  -0.1095  0.1750  1.0000  -3.6027   0.0000   0.0000   0.0000   0.2984
  11.400   1.6316   0.02536   0.01942  -0.1088  0.1699  1.0000  -3.6432   0.0000   0.0000   0.0000   0.2976
  11.500   1.6337   0.02598   0.02001  -0.1080  0.1650  1.0000  -3.6817   0.0000   0.0000   0.0000   0.2969
  11.600   1.6367   0.02655   0.02057  -0.1073  0.1600  1.0000  -3.7229   0.0000   0.0000   0.0000   0.2961
  11.700   1.6391   0.02716   0.02116  -0.1065  0.1554  1.0000  -3.7624   0.0000   0.0000   0.0000   0.2954
  11.800   1.6413   0.02779   0.02178  -0.1058  0.1506  1.0000  -3.8015   0.0000   0.0000   0.0000   0.2946
  11.900   1.6440   0.02839   0.02237  -0.1051  0.1461  1.0000  -3.8420   0.0000   0.0000   0.0000   0.2939
  12.000   1.6458   0.02906   0.02301  -0.1043  0.1418  1.0000  -3.8800   0.0000   0.0000   0.0000   0.2932
  12.100   1.6483   0.02967   0.02362  -0.1037  0.1374  1.0000  -3.9214   0.0000   0.0000   0.0000   0.2925
  12.200   1.6503   0.03033   0.02426  -0.1029  0.1333  1.0000  -3.9626   0.0000   0.0000   0.0000   0.2918
  12.300   1.6524   0.03099   0.02491  -0.1022  0.1292  1.0000  -4.0041   0.0000   0.0000   0.0000   0.2911
  12.400   1.6546   0.03164   0.02556  -0.1016  0.1254  1.0000  -4.0463   0.0000   0.0000   0.0000   0.2904
  12.500   1.6564   0.03234   0.02624  -0.1009  0.1217  1.0000  -4.0871   0.0000   0.0000   0.0000   0.2897
  12.600   1.6587   0.03299   0.02690  -0.1002  0.1181  1.0000  -4.1299   0.0000   0.0000   0.0000   0.2890
  12.700   1.6603   0.03372   0.02761  -0.0995  0.1145  1.0000  -4.1701   0.0000   0.0000   0.0000   0.2883
  12.800   1.6626   0.03439   0.02828  -0.0989  0.1111  1.0000  -4.2148   0.0000   0.0000   0.0000   0.2876
  12.900   1.6640   0.03514   0.02902  -0.0982  0.1078  1.0000  -4.2570   0.0000   0.0000   0.0000   0.2870
  13.000   1.6663   0.03583   0.02971  -0.0977  0.1045  1.0000  -4.3029   0.0000   0.0000   0.0000   0.2863
  13.100   1.6675   0.03661   0.03049  -0.0970  0.1014  1.0000  -4.3448   0.0000   0.0000   0.0000   0.2857
  13.200   1.6697   0.03732   0.03119  -0.0964  0.0982  1.0000  -4.3907   0.0000   0.0000   0.0000   0.2851
  13.300   1.6708   0.03813   0.03200  -0.0958  0.0953  1.0000  -4.4324   0.0000   0.0000   0.0000   0.2844
  13.400   1.6730   0.03885   0.03273  -0.0953  0.0923  1.0000  -4.4796   0.0000   0.0000   0.0000   0.2838
  13.500   1.6741   0.03968   0.03355  -0.0947  0.0895  1.0000  -4.5238   0.0000   0.0000   0.0000   0.2832
  13.600   1.6760   0.04044   0.03431  -0.0941  0.0868  1.0000  -4.5715   0.0000   0.0000   0.0000   0.2826
  13.700   1.6772   0.04127   0.03513  -0.0935  0.0841  1.0000  -4.6168   0.0000   0.0000   0.0000   0.2820
  13.800   1.6787   0.04208   0.03595  -0.0930  0.0816  1.0000  -4.6653   0.0000   0.0000   0.0000   0.2814
  13.900   1.6802   0.04289   0.03676  -0.0925  0.0791  1.0000  -4.7150   0.0000   0.0000   0.0000   0.2809
  14.000   1.6811   0.04378   0.03765  -0.0919  0.0769  1.0000  -4.7617   0.0000   0.0000   0.0000   0.2803
  14.100   1.6830   0.04458   0.03846  -0.0915  0.0745  1.0000  -4.8132   0.0000   0.0000   0.0000   0.2797
  14.200   1.6838   0.04548   0.03936  -0.0910  0.0724  1.0000  -4.8599   0.0000   0.0000   0.0000   0.2792
  14.300   1.6854   0.04632   0.04021  -0.0905  0.0705  1.0000  -4.9103   0.0000   0.0000   0.0000   0.2786
  14.400   1.6868   0.04718   0.04108  -0.0900  0.0685  1.0000  -4.9598   0.0000   0.0000   0.0000   0.2781
  14.600   1.6890   0.04898   0.04290  -0.0891  0.0650  1.0000  -5.0565   0.0000   0.0000   0.0000   0.2770
  14.700   1.6901   0.04989   0.04382  -0.0887  0.0632  1.0000  -5.1053   0.0000   0.0000   0.0000   0.2765
  14.900   1.6919   0.05177   0.04571  -0.0878  0.0601  1.0000  -5.2014   0.0000   0.0000   0.0000   0.2755
  15.000   1.6929   0.05271   0.04667  -0.0874  0.0586  1.0000  -5.2501   0.0000   0.0000   0.0000   0.2750
  15.100   1.6929   0.05377   0.04773  -0.0870  0.0572  1.0000  -5.2942   0.0000   0.0000   0.0000   0.2745
  15.200   1.6942   0.05470   0.04868  -0.0867  0.0558  1.0000  -5.3441   0.0000   0.0000   0.0000   0.2740
  15.300   1.6953   0.05565   0.04965  -0.0863  0.0544  1.0000  -5.3936   0.0000   0.0000   0.0000   0.2736
  15.400   1.6955   0.05670   0.05071  -0.0859  0.0532  1.0000  -5.4390   0.0000   0.0000   0.0000   0.2731
  15.500   1.6951   0.05782   0.05184  -0.0855  0.0520  1.0000  -5.4814   0.0000   0.0000   0.0000   0.2727
  15.600   1.6966   0.05874   0.05279  -0.0852  0.0508  1.0000  -5.5331   0.0000   0.0000   0.0000   0.2722
  15.700   1.6974   0.05974   0.05381  -0.0849  0.0496  1.0000  -5.5812   0.0000   0.0000   0.0000   0.2718
  15.800   1.6971   0.06087   0.05495  -0.0846  0.0485  1.0000  -5.6249   0.0000   0.0000   0.0000   0.2713
  15.900   1.6964   0.06207   0.05616  -0.0843  0.0475  1.0000  -5.6657   0.0000   0.0000   0.0000   0.2709
  16.000   1.6979   0.06301   0.05713  -0.0840  0.0465  1.0000  -5.7179   0.0000   0.0000   0.0000   0.2705
  16.100   1.6984   0.06408   0.05822  -0.0838  0.0454  1.0000  -5.7652   0.0000   0.0000   0.0000   0.2701
  16.200   1.6982   0.06523   0.05939  -0.0835  0.0444  1.0000  -5.8093   0.0000   0.0000   0.0000   0.2697
  16.300   1.6971   0.06650   0.06067  -0.0832  0.0436  1.0000  -5.8486   0.0000   0.0000   0.0000   0.2693
  16.400   1.6976   0.06758   0.06178  -0.0830  0.0427  1.0000  -5.8960   0.0000   0.0000   0.0000   0.2690
  16.500   1.6983   0.06864   0.06287  -0.0828  0.0417  1.0000  -5.9446   0.0000   0.0000   0.0000   0.2686
  16.600   1.6981   0.06983   0.06408  -0.0826  0.0408  1.0000  -5.9883   0.0000   0.0000   0.0000   0.2682
  16.700   1.6971   0.07109   0.06535  -0.0824  0.0400  1.0000  -6.0288   0.0000   0.0000   0.0000   0.2679
  16.900   1.6960   0.07355   0.06787  -0.0820  0.0385  1.0000  -6.1132   0.0000   0.0000   0.0000   0.2672
  17.000   1.6962   0.07471   0.06905  -0.0818  0.0376  1.0000  -6.1593   0.0000   0.0000   0.0000   0.2669
  17.100   1.6955   0.07598   0.07035  -0.0817  0.0368  1.0000  -6.2009   0.0000   0.0000   0.0000   0.2665
  17.200   1.6942   0.07733   0.07171  -0.0816  0.0361  1.0000  -6.2396   0.0000   0.0000   0.0000   0.2663
  17.300   1.6920   0.07882   0.07322  -0.0814  0.0355  1.0000  -6.2727   0.0000   0.0000   0.0000   0.2660
  17.400   1.6917   0.08006   0.07449  -0.0814  0.0348  1.0000  -6.3162   0.0000   0.0000   0.0000   0.2657
  17.500   1.6917   0.08127   0.07574  -0.0813  0.0341  1.0000  -6.3610   0.0000   0.0000   0.0000   0.2654
  17.600   1.6909   0.08259   0.07708  -0.0812  0.0334  1.0000  -6.4019   0.0000   0.0000   0.0000   0.2651
  17.700   1.6895   0.08398   0.07849  -0.0812  0.0328  1.0000  -6.4400   0.0000   0.0000   0.0000   0.2649
  17.800   1.6873   0.08549   0.08003  -0.0811  0.0322  1.0000  -6.4729   0.0000   0.0000   0.0000   0.2647
  17.900   1.6843   0.08710   0.08165  -0.0811  0.0317  1.0000  -6.5017   0.0000   0.0000   0.0000   0.2645
  18.000   1.6836   0.08842   0.08301  -0.0811  0.0311  1.0000  -6.5428   0.0000   0.0000   0.0000   0.2643
  18.100   1.6833   0.08970   0.08433  -0.0811  0.0305  1.0000  -6.5857   0.0000   0.0000   0.0000   0.2640
  18.200   1.6821   0.09110   0.08577  -0.0811  0.0300  1.0000  -6.6239   0.0000   0.0000   0.0000   0.2638
  18.300   1.6804   0.09258   0.08727  -0.0812  0.0294  1.0000  -6.6594   0.0000   0.0000   0.0000   0.2637
  18.400   1.6781   0.09414   0.08885  -0.0813  0.0290  1.0000  -6.6917   0.0000   0.0000   0.0000   0.2635
  18.500   1.6751   0.09581   0.09055  -0.0814  0.0285  1.0000  -6.7196   0.0000   0.0000   0.0000   0.2634
  18.700   1.6706   0.09898   0.09378  -0.0816  0.0277  1.0000  -6.7826   0.0000   0.0000   0.0000   0.2632
  18.800   1.6698   0.10036   0.09520  -0.0817  0.0272  1.0000  -6.8222   0.0000   0.0000   0.0000   0.2630
  18.900   1.6683   0.10186   0.09673  -0.0819  0.0268  1.0000  -6.8576   0.0000   0.0000   0.0000   0.2629
  19.000   1.6665   0.10339   0.09830  -0.0821  0.0263  1.0000  -6.8911   0.0000   0.0000   0.0000   0.2628
  19.100   1.6640   0.10502   0.09995  -0.0823  0.0260  1.0000  -6.9210   0.0000   0.0000   0.0000   0.2627
  19.200   1.6612   0.10669   0.10165  -0.0825  0.0256  1.0000  -6.9489   0.0000   0.0000   0.0000   0.2627
  19.300   1.6578   0.10848   0.10346  -0.0828  0.0253  1.0000  -6.9724   0.0000   0.0000   0.0000   0.2627
  19.400   1.6538   0.11036   0.10537  -0.0831  0.0250  1.0000  -6.9918   0.0000   0.0000   0.0000   0.2628
  19.500   1.6504   0.11216   0.10721  -0.0835  0.0247  1.0000  -7.0147   0.0000   0.0000   0.0000   0.2628
  19.600   1.6495   0.11359   0.10868  -0.0838  0.0243  1.0000  -7.0521   0.0000   0.0000   0.0000   0.2627
  19.700   1.6481   0.11511   0.11024  -0.0841  0.0240  1.0000  -7.0865   0.0000   0.0000   0.0000   0.2627
  19.800   1.6465   0.11669   0.11185  -0.0844  0.0237  1.0000  -7.1191   0.0000   0.0000   0.0000   0.2627
  19.900   1.6446   0.11828   0.11348  -0.0848  0.0233  1.0000  -7.1504   0.0000   0.0000   0.0000   0.2627
  20.000   1.6422   0.11998   0.11521  -0.0852  0.0230  1.0000  -7.1781   0.0000   0.0000   0.0000   0.2628


