xflr5 v6.57

 Calculated polar for: wine

 1 1 Reynolds number fixed          Mach number fixed         

 xtrf =   1.000 (top)        1.000 (bottom)
 Mach =   0.000     Re =     1.000 e 6     Ncrit =   9.000

  alpha     CL        CD       CDp       Cm    Top Xtr Bot Xtr   Cpmin    Chinge    XCp    
 ------- -------- --------- --------- -------- ------- ------- -------- --------- ---------
 -10.000  -0.4637   0.01722   0.01230  -0.1369  0.7928  0.0197  -6.6544   0.0000   0.0000   0.0000  -0.0655
  -9.900  -0.4532   0.01698   0.01202  -0.1370  0.7917  0.0198  -6.5564   0.0000   0.0000   0.0000  -0.0727
  -9.800  -0.4427   0.01675   0.01174  -0.1371  0.7905  0.0200  -6.4592   0.0000   0.0000   0.0000  -0.0803
  -9.700  -0.4320   0.01651   0.01147  -0.1372  0.7892  0.0201  -6.3623   0.0000   0.0000   0.0000  -0.0883
  -9.600  -0.4213   0.01628   0.01120  -0.1373  0.7878  0.0203  -6.2703   0.0000   0.0000   0.0000  -0.0968
  -9.500  -0.4106   0.01605   0.01094  -0.1374  0.7864  0.0205  -6.1810   0.0000   0.0000   0.0000  -0.1058
  -9.400  -0.3998   0.01584   0.01068  -0.1375  0.7851  0.0206  -6.0918   0.0000   0.0000   0.0000  -0.1152
  -9.300  -0.3890   0.01565   0.01044  -0.1376  0.7839  0.0208  -6.0024   0.0000   0.0000   0.0000  -0.1252
  -9.200  -0.3781   0.01547   0.01022  -0.1376  0.7828  0.0209  -5.9127   0.0000   0.0000   0.0000  -0.1359
  -9.100  -0.3672   0.01532   0.01002  -0.1377  0.7817  0.0210  -5.8224   0.0000   0.0000   0.0000  -0.1472
  -9.000  -0.3562   0.01514   0.00980  -0.1378  0.7805  0.0211  -5.7334   0.0000   0.0000   0.0000  -0.1593
  -8.900  -0.3467   0.01454   0.00917  -0.1379  0.7791  0.0215  -5.6675   0.0000   0.0000   0.0000  -0.1706
  -8.800  -0.3361   0.01426   0.00887  -0.1380  0.7778  0.0217  -5.5816   0.0000   0.0000   0.0000  -0.1838
  -8.700  -0.3252   0.01407   0.00867  -0.1381  0.7765  0.0219  -5.4903   0.0000   0.0000   0.0000  -0.1983
  -8.600  -0.3141   0.01392   0.00851  -0.1382  0.7752  0.0222  -5.3976   0.0000   0.0000   0.0000  -0.2139
  -8.500  -0.3030   0.01379   0.00836  -0.1383  0.7741  0.0224  -5.3053   0.0000   0.0000   0.0000  -0.2308
  -8.400  -0.2919   0.01366   0.00821  -0.1384  0.7730  0.0226  -5.2141   0.0000   0.0000   0.0000  -0.2489
  -8.300  -0.2808   0.01354   0.00805  -0.1385  0.7720  0.0229  -5.1244   0.0000   0.0000   0.0000  -0.2685
  -8.200  -0.2696   0.01339   0.00789  -0.1386  0.7707  0.0231  -5.0361   0.0000   0.0000   0.0000  -0.2899
  -8.100  -0.2584   0.01324   0.00772  -0.1387  0.7694  0.0233  -4.9494   0.0000   0.0000   0.0000  -0.3131
  -8.000  -0.2472   0.01308   0.00754  -0.1387  0.7681  0.0236  -4.8635   0.0000   0.0000   0.0000  -0.3384
  -7.900  -0.2361   0.01294   0.00737  -0.1388  0.7669  0.0238  -4.7783   0.0000   0.0000   0.0000  -0.3661
  -7.800  -0.2248   0.01280   0.00720  -0.1389  0.7657  0.0240  -4.6934   0.0000   0.0000   0.0000  -0.3967
  -7.700  -0.2136   0.01267   0.00704  -0.1390  0.7645  0.0242  -4.6087   0.0000   0.0000   0.0000  -0.4305
  -7.600  -0.2023   0.01256   0.00689  -0.1390  0.7634  0.0244  -4.5241   0.0000   0.0000   0.0000  -0.4682
  -7.500  -0.1910   0.01246   0.00676  -0.1391  0.7624  0.0246  -4.4393   0.0000   0.0000   0.0000  -0.5105
  -7.400  -0.1803   0.01214   0.00642  -0.1392  0.7612  0.0249  -4.3657   0.0000   0.0000   0.0000  -0.5556
  -7.300  -0.1693   0.01190   0.00617  -0.1393  0.7599  0.0253  -4.2865   0.0000   0.0000   0.0000  -0.6077
  -7.200  -0.1581   0.01175   0.00601  -0.1394  0.7586  0.0255  -4.2035   0.0000   0.0000   0.0000  -0.6684
  -7.100  -0.1468   0.01162   0.00588  -0.1395  0.7574  0.0258  -4.1196   0.0000   0.0000   0.0000  -0.7390
  -7.000  -0.1355   0.01151   0.00576  -0.1395  0.7562  0.0261  -4.0358   0.0000   0.0000   0.0000  -0.8216
  -6.900  -0.1241   0.01142   0.00565  -0.1396  0.7550  0.0265  -3.9524   0.0000   0.0000   0.0000  -0.9196
  -6.800  -0.1127   0.01133   0.00554  -0.1397  0.7539  0.0269  -3.8699   0.0000   0.0000   0.0000  -1.0375
  -6.700  -0.1013   0.01124   0.00543  -0.1398  0.7529  0.0272  -3.7883   0.0000   0.0000   0.0000  -1.1819
  -6.600  -0.0899   0.01116   0.00532  -0.1398  0.7518  0.0276  -3.7100   0.0000   0.0000   0.0000  -1.3637
  -6.500  -0.0784   0.01107   0.00522  -0.1399  0.7506  0.0280  -3.6361   0.0000   0.0000   0.0000  -1.5997
  -6.400  -0.0669   0.01099   0.00512  -0.1400  0.7493  0.0282  -3.5626   0.0000   0.0000   0.0000  -1.9173
  -6.300  -0.0557   0.01082   0.00493  -0.1401  0.7480  0.0286  -3.4940   0.0000   0.0000   0.0000  -2.3551
  -6.200  -0.0445   0.01061   0.00472  -0.1402  0.7468  0.0291  -3.4257   0.0000   0.0000   0.0000  -3.0069
  -6.100  -0.0332   0.01049   0.00460  -0.1403  0.7456  0.0296  -3.3536   0.0000   0.0000   0.0000  -4.1219
  -6.000  -0.0217   0.01040   0.00450  -0.1403  0.7445  0.0300  -3.2809   0.0000   0.0000   0.0000  -6.4187
  -5.900  -0.0103   0.01033   0.00440  -0.1404  0.7434  0.0305  -3.2090   0.0000   0.0000   0.0000  -13.8301
  -5.800   0.0012   0.01026   0.00431  -0.1405  0.7423  0.0309  -3.1379   0.0000   0.0000   0.0000  124.2519
  -5.700   0.0127   0.01017   0.00421  -0.1406  0.7410  0.0314  -3.0676   0.0000   0.0000   0.0000  11.6787
  -5.600   0.0242   0.01009   0.00413  -0.1407  0.7397  0.0319  -2.9978   0.0000   0.0000   0.0000   6.2350
  -5.500   0.0358   0.01003   0.00405  -0.1407  0.7384  0.0323  -2.9282   0.0000   0.0000   0.0000   4.3002
  -5.400   0.0471   0.00986   0.00388  -0.1408  0.7372  0.0330  -2.8627   0.0000   0.0000   0.0000   3.3270
  -5.300   0.0585   0.00975   0.00377  -0.1409  0.7360  0.0338  -2.7942   0.0000   0.0000   0.0000   2.7265
  -5.200   0.0700   0.00968   0.00369  -0.1410  0.7348  0.0344  -2.7249   0.0000   0.0000   0.0000   2.3197
  -5.100   0.0815   0.00963   0.00362  -0.1411  0.7337  0.0352  -2.6564   0.0000   0.0000   0.0000   2.0271
  -5.000   0.0931   0.00958   0.00355  -0.1412  0.7327  0.0359  -2.5900   0.0000   0.0000   0.0000   1.8067
  -4.900   0.1047   0.00952   0.00348  -0.1412  0.7314  0.0366  -2.5285   0.0000   0.0000   0.0000   1.6342
  -4.800   0.1161   0.00940   0.00336  -0.1413  0.7301  0.0374  -2.4698   0.0000   0.0000   0.0000   1.4976
  -4.700   0.1276   0.00930   0.00327  -0.1414  0.7287  0.0383  -2.4094   0.0000   0.0000   0.0000   1.3854
  -4.600   0.1392   0.00923   0.00320  -0.1415  0.7274  0.0392  -2.3484   0.0000   0.0000   0.0000   1.2912
  -4.500   0.1507   0.00917   0.00313  -0.1416  0.7262  0.0401  -2.2882   0.0000   0.0000   0.0000   1.2112
  -4.400   0.1623   0.00913   0.00307  -0.1417  0.7250  0.0410  -2.2287   0.0000   0.0000   0.0000   1.1426
  -4.300   0.1738   0.00905   0.00297  -0.1417  0.7238  0.0421  -2.1708   0.0000   0.0000   0.0000   1.0835
  -4.200   0.1853   0.00898   0.00290  -0.1418  0.7227  0.0433  -2.1121   0.0000   0.0000   0.0000   1.0318
  -4.100   0.1969   0.00892   0.00284  -0.1419  0.7215  0.0445  -2.0532   0.0000   0.0000   0.0000   0.9858
  -4.000   0.2085   0.00887   0.00279  -0.1420  0.7201  0.0457  -1.9950   0.0000   0.0000   0.0000   0.9448
  -3.900   0.2201   0.00879   0.00272  -0.1421  0.7187  0.0471  -1.9380   0.0000   0.0000   0.0000   0.9083
  -3.800   0.2316   0.00872   0.00266  -0.1422  0.7174  0.0487  -1.8806   0.0000   0.0000   0.0000   0.8755
  -3.700   0.2432   0.00867   0.00261  -0.1423  0.7161  0.0503  -1.8236   0.0000   0.0000   0.0000   0.8457
  -3.600   0.2548   0.00863   0.00255  -0.1423  0.7149  0.0520  -1.7676   0.0000   0.0000   0.0000   0.8186
  -3.500   0.2663   0.00856   0.00249  -0.1424  0.7137  0.0540  -1.7136   0.0000   0.0000   0.0000   0.7940
  -3.400   0.2779   0.00853   0.00244  -0.1425  0.7125  0.0560  -1.6626   0.0000   0.0000   0.0000   0.7713
  -3.300   0.2895   0.00846   0.00239  -0.1426  0.7111  0.0582  -1.6123   0.0000   0.0000   0.0000   0.7505
  -3.200   0.3010   0.00840   0.00235  -0.1427  0.7096  0.0607  -1.5619   0.0000   0.0000   0.0000   0.7313
  -3.100   0.3126   0.00835   0.00230  -0.1428  0.7082  0.0634  -1.5121   0.0000   0.0000   0.0000   0.7134
  -3.000   0.3242   0.00829   0.00225  -0.1429  0.7068  0.0667  -1.4625   0.0000   0.0000   0.0000   0.6969
  -2.900   0.3358   0.00823   0.00220  -0.1430  0.7054  0.0703  -1.4134   0.0000   0.0000   0.0000   0.6815
  -2.800   0.3473   0.00819   0.00216  -0.1430  0.7042  0.0745  -1.3647   0.0000   0.0000   0.0000   0.6671
  -2.700   0.3588   0.00814   0.00212  -0.1431  0.7029  0.0794  -1.3164   0.0000   0.0000   0.0000   0.6537
  -2.600   0.3704   0.00809   0.00209  -0.1432  0.7016  0.0848  -1.2685   0.0000   0.0000   0.0000   0.6411
  -2.500   0.3820   0.00803   0.00206  -0.1433  0.7001  0.0909  -1.2209   0.0000   0.0000   0.0000   0.6293
  -2.400   0.3935   0.00797   0.00202  -0.1434  0.6986  0.0980  -1.1738   0.0000   0.0000   0.0000   0.6182
  -2.300   0.4051   0.00791   0.00199  -0.1435  0.6971  0.1060  -1.1271   0.0000   0.0000   0.0000   0.6077
  -2.200   0.4166   0.00785   0.00196  -0.1436  0.6957  0.1149  -1.0808   0.0000   0.0000   0.0000   0.5978
  -2.100   0.4281   0.00780   0.00194  -0.1437  0.6944  0.1244  -1.0350   0.0000   0.0000   0.0000   0.5884
  -2.000   0.4396   0.00776   0.00191  -0.1438  0.6931  0.1344  -0.9923   0.0000   0.0000   0.0000   0.5796
  -1.900   0.4511   0.00772   0.00189  -0.1439  0.6918  0.1451  -0.9507   0.0000   0.0000   0.0000   0.5712
  -1.800   0.4627   0.00765   0.00187  -0.1440  0.6902  0.1566  -0.9094   0.0000   0.0000   0.0000   0.5632
  -1.700   0.4743   0.00760   0.00186  -0.1441  0.6886  0.1685  -0.8686   0.0000   0.0000   0.0000   0.5556
  -1.600   0.4858   0.00754   0.00184  -0.1442  0.6870  0.1805  -0.8298   0.0000   0.0000   0.0000   0.5483
  -1.400   0.5088   0.00745   0.00181  -0.1444  0.6840  0.2059  -0.8446   0.0000   0.0000   0.0000   0.5348
  -1.300   0.5203   0.00741   0.00179  -0.1445  0.6826  0.2203  -0.8521   0.0000   0.0000   0.0000   0.5285
  -1.200   0.5318   0.00737   0.00179  -0.1446  0.6812  0.2349  -0.8596   0.0000   0.0000   0.0000   0.5224
  -1.100   0.5433   0.00731   0.00178  -0.1447  0.6794  0.2494  -0.8675   0.0000   0.0000   0.0000   0.5167
  -1.000   0.5549   0.00726   0.00177  -0.1448  0.6777  0.2650  -0.8754   0.0000   0.0000   0.0000   0.5111
  -0.800   0.5778   0.00716   0.00176  -0.1450  0.6745  0.2994  -0.8913   0.0000   0.0000   0.0000   0.5007
  -0.700   0.5893   0.00712   0.00176  -0.1451  0.6730  0.3181  -0.8994   0.0000   0.0000   0.0000   0.4958
  -0.600   0.6007   0.00708   0.00176  -0.1452  0.6716  0.3377  -0.9075   0.0000   0.0000   0.0000   0.4911
  -0.500   0.6122   0.00702   0.00176  -0.1453  0.6699  0.3578  -0.9157   0.0000   0.0000   0.0000   0.4866
  -0.400   0.6237   0.00697   0.00177  -0.1454  0.6681  0.3795  -0.9240   0.0000   0.0000   0.0000   0.4822
  -0.300   0.6352   0.00691   0.00177  -0.1455  0.6664  0.4027  -0.9324   0.0000   0.0000   0.0000   0.4780
  -0.200   0.6466   0.00686   0.00178  -0.1456  0.6646  0.4259  -0.9408   0.0000   0.0000   0.0000   0.4739
  -0.100   0.6580   0.00682   0.00178  -0.1457  0.6630  0.4494  -0.9491   0.0000   0.0000   0.0000   0.4700
   0.000   0.6693   0.00678   0.00179  -0.1458  0.6615  0.4731  -0.9575   0.0000   0.0000   0.0000   0.4662
   0.100   0.6808   0.00673   0.00181  -0.1459  0.6597  0.4970  -0.9659   0.0000   0.0000   0.0000   0.4625
   0.200   0.6922   0.00668   0.00182  -0.1460  0.6578  0.5213  -0.9746   0.0000   0.0000   0.0000   0.4589
   0.300   0.7036   0.00663   0.00184  -0.1461  0.6558  0.5453  -0.9833   0.0000   0.0000   0.0000   0.4555
   0.400   0.7149   0.00659   0.00185  -0.1461  0.6540  0.5695  -0.9922   0.0000   0.0000   0.0000   0.4521
   0.500   0.7261   0.00656   0.00187  -0.1461  0.6522  0.5946  -1.0010   0.0000   0.0000   0.0000   0.4489
   0.600   0.7373   0.00653   0.00189  -0.1462  0.6505  0.6198  -1.0099   0.0000   0.0000   0.0000   0.4457
   0.700   0.7487   0.00648   0.00192  -0.1462  0.6484  0.6448  -1.0193   0.0000   0.0000   0.0000   0.4426
   0.800   0.7600   0.00645   0.00194  -0.1463  0.6463  0.6669  -1.0286   0.0000   0.0000   0.0000   0.4396
   0.900   0.7712   0.00643   0.00196  -0.1463  0.6443  0.6867  -1.0379   0.0000   0.0000   0.0000   0.4367
   1.000   0.7824   0.00642   0.00198  -0.1463  0.6424  0.7052  -1.0474   0.0000   0.0000   0.0000   0.4338
   1.100   0.7934   0.00642   0.00200  -0.1463  0.6406  0.7230  -1.0569   0.0000   0.0000   0.0000   0.4311
   1.200   0.8046   0.00639   0.00203  -0.1463  0.6385  0.7402  -1.0665   0.0000   0.0000   0.0000   0.4284
   1.300   0.8158   0.00637   0.00205  -0.1463  0.6363  0.7572  -1.0760   0.0000   0.0000   0.0000   0.4257
   1.400   0.8268   0.00636   0.00208  -0.1462  0.6341  0.7733  -1.0856   0.0000   0.0000   0.0000   0.4232
   1.500   0.8378   0.00636   0.00210  -0.1462  0.6320  0.7884  -1.0954   0.0000   0.0000   0.0000   0.4207
   1.600   0.8485   0.00636   0.00212  -0.1461  0.6301  0.8032  -1.1053   0.0000   0.0000   0.0000   0.4182
   1.700   0.8595   0.00634   0.00215  -0.1460  0.6278  0.8184  -1.1154   0.0000   0.0000   0.0000   0.4158
   1.800   0.8703   0.00632   0.00217  -0.1459  0.6254  0.8342  -1.1253   0.0000   0.0000   0.0000   0.4134
   1.900   0.8807   0.00631   0.00219  -0.1457  0.6230  0.8511  -1.1351   0.0000   0.0000   0.0000   0.4111
   2.000   0.8907   0.00629   0.00222  -0.1454  0.6208  0.8704  -1.1451   0.0000   0.0000   0.0000   0.4088
   2.100   0.9001   0.00627   0.00224  -0.1450  0.6186  0.8935  -1.1549   0.0000   0.0000   0.0000   0.4065
   2.200   0.9090   0.00621   0.00225  -0.1444  0.6161  0.9245  -1.1643   0.0000   0.0000   0.0000   0.4041
   2.300   0.9242   0.00615   0.00223  -0.1452  0.6134  0.9960  -1.1781   0.0000   0.0000   0.0000   0.4023
   2.400   0.9354   0.00618   0.00225  -0.1453  0.6109  1.0000  -1.1892   0.0000   0.0000   0.0000   0.4003
   2.500   0.9466   0.00623   0.00227  -0.1453  0.6087  1.0000  -1.2006   0.0000   0.0000   0.0000   0.3984
   2.600   0.9581   0.00625   0.00230  -0.1454  0.6059  1.0000  -1.2123   0.0000   0.0000   0.0000   0.3965
   2.700   0.9695   0.00629   0.00232  -0.1455  0.6032  1.0000  -1.2242   0.0000   0.0000   0.0000   0.3946
   2.800   0.9806   0.00633   0.00234  -0.1455  0.6005  1.0000  -1.2361   0.0000   0.0000   0.0000   0.3928
   2.900   0.9917   0.00638   0.00237  -0.1455  0.5980  1.0000  -1.2478   0.0000   0.0000   0.0000   0.3911
   3.000   1.0031   0.00641   0.00239  -0.1456  0.5951  1.0000  -1.2599   0.0000   0.0000   0.0000   0.3894
   3.100   1.0143   0.00644   0.00242  -0.1456  0.5921  1.0000  -1.2721   0.0000   0.0000   0.0000   0.3877
   3.200   1.0254   0.00649   0.00245  -0.1456  0.5892  1.0000  -1.2846   0.0000   0.0000   0.0000   0.3860
   3.300   1.0365   0.00654   0.00249  -0.1457  0.5864  1.0000  -1.2972   0.0000   0.0000   0.0000   0.3844
   3.400   1.0477   0.00658   0.00252  -0.1457  0.5832  1.0000  -1.3099   0.0000   0.0000   0.0000   0.3828
   3.500   1.0587   0.00662   0.00255  -0.1457  0.5800  1.0000  -1.3228   0.0000   0.0000   0.0000   0.3812
   3.600   1.0695   0.00669   0.00259  -0.1457  0.5770  1.0000  -1.3355   0.0000   0.0000   0.0000   0.3797
   3.700   1.0808   0.00672   0.00262  -0.1458  0.5736  1.0000  -1.3491   0.0000   0.0000   0.0000   0.3782
   3.800   1.0917   0.00677   0.00266  -0.1458  0.5700  1.0000  -1.3628   0.0000   0.0000   0.0000   0.3767
   4.000   1.1135   0.00688   0.00274  -0.1457  0.5630  1.0000  -1.3913   0.0000   0.0000   0.0000   0.3738
   4.100   1.1243   0.00693   0.00278  -0.1457  0.5591  1.0000  -1.4058   0.0000   0.0000   0.0000   0.3724
   4.200   1.1349   0.00701   0.00283  -0.1456  0.5555  1.0000  -1.4205   0.0000   0.0000   0.0000   0.3710
   4.300   1.1459   0.00705   0.00287  -0.1457  0.5516  1.0000  -1.4361   0.0000   0.0000   0.0000   0.3696
   4.400   1.1565   0.00712   0.00292  -0.1456  0.5475  1.0000  -1.4520   0.0000   0.0000   0.0000   0.3683
   4.500   1.1671   0.00719   0.00297  -0.1456  0.5436  1.0000  -1.4683   0.0000   0.0000   0.0000   0.3669
   4.600   1.1779   0.00725   0.00302  -0.1455  0.5393  1.0000  -1.4849   0.0000   0.0000   0.0000   0.3656
   4.700   1.1883   0.00733   0.00308  -0.1454  0.5351  1.0000  -1.5011   0.0000   0.0000   0.0000   0.3643
   4.800   1.1990   0.00739   0.00313  -0.1454  0.5308  1.0000  -1.5179   0.0000   0.0000   0.0000   0.3631
   4.900   1.2095   0.00746   0.00319  -0.1453  0.5264  1.0000  -1.5349   0.0000   0.0000   0.0000   0.3618
   5.000   1.2198   0.00754   0.00325  -0.1452  0.5222  1.0000  -1.5523   0.0000   0.0000   0.0000   0.3606
   5.100   1.2304   0.00761   0.00331  -0.1452  0.5175  1.0000  -1.5702   0.0000   0.0000   0.0000   0.3594
   5.300   1.2510   0.00777   0.00343  -0.1450  0.5083  1.0000  -1.6090   0.0000   0.0000   0.0000   0.3570
   5.400   1.2610   0.00787   0.00351  -0.1448  0.5032  1.0000  -1.6287   0.0000   0.0000   0.0000   0.3558
   5.500   1.2712   0.00795   0.00358  -0.1447  0.4981  1.0000  -1.6491   0.0000   0.0000   0.0000   0.3547
   5.600   1.2811   0.00806   0.00366  -0.1446  0.4927  1.0000  -1.6694   0.0000   0.0000   0.0000   0.3535
   5.700   1.2912   0.00815   0.00373  -0.1444  0.4874  1.0000  -1.6901   0.0000   0.0000   0.0000   0.3524
   5.800   1.3009   0.00826   0.00381  -0.1442  0.4819  1.0000  -1.7108   0.0000   0.0000   0.0000   0.3513
   5.900   1.3109   0.00835   0.00389  -0.1441  0.4766  1.0000  -1.7323   0.0000   0.0000   0.0000   0.3502
   6.000   1.3206   0.00846   0.00398  -0.1439  0.4712  1.0000  -1.7540   0.0000   0.0000   0.0000   0.3491
   6.100   1.3304   0.00856   0.00407  -0.1437  0.4659  1.0000  -1.7762   0.0000   0.0000   0.0000   0.3480
   6.200   1.3400   0.00868   0.00416  -0.1435  0.4604  1.0000  -1.7981   0.0000   0.0000   0.0000   0.3469
   6.300   1.3497   0.00878   0.00425  -0.1433  0.4550  1.0000  -1.8229   0.0000   0.0000   0.0000   0.3459
   6.400   1.3590   0.00891   0.00435  -0.1431  0.4494  1.0000  -1.8492   0.0000   0.0000   0.0000   0.3448
   6.500   1.3686   0.00902   0.00444  -0.1429  0.4438  1.0000  -1.8765   0.0000   0.0000   0.0000   0.3438
   6.700   1.3871   0.00927   0.00464  -0.1424  0.4321  1.0000  -1.9337   0.0000   0.0000   0.0000   0.3417
   6.800   1.3958   0.00942   0.00476  -0.1420  0.4259  1.0000  -1.9631   0.0000   0.0000   0.0000   0.3407
   6.900   1.4048   0.00956   0.00488  -0.1417  0.4191  1.0000  -1.9931   0.0000   0.0000   0.0000   0.3396
   7.000   1.4135   0.00971   0.00500  -0.1414  0.4123  1.0000  -2.0236   0.0000   0.0000   0.0000   0.3386
   7.100   1.4217   0.00988   0.00513  -0.1409  0.4054  1.0000  -2.0538   0.0000   0.0000   0.0000   0.3376
   7.200   1.4304   0.01002   0.00525  -0.1406  0.3982  1.0000  -2.0856   0.0000   0.0000   0.0000   0.3366
   7.300   1.4387   0.01018   0.00539  -0.1402  0.3916  1.0000  -2.1177   0.0000   0.0000   0.0000   0.3356
   7.400   1.4466   0.01036   0.00553  -0.1397  0.3850  1.0000  -2.1494   0.0000   0.0000   0.0000   0.3346
   7.500   1.4551   0.01051   0.00565  -0.1393  0.3784  1.0000  -2.1820   0.0000   0.0000   0.0000   0.3336
   7.600   1.4628   0.01069   0.00580  -0.1388  0.3718  1.0000  -2.2136   0.0000   0.0000   0.0000   0.3326
   7.700   1.4705   0.01087   0.00596  -0.1383  0.3649  1.0000  -2.2466   0.0000   0.0000   0.0000   0.3316
   7.800   1.4781   0.01104   0.00610  -0.1378  0.3582  1.0000  -2.2798   0.0000   0.0000   0.0000   0.3306
   7.900   1.4846   0.01123   0.00626  -0.1371  0.3519  1.0000  -2.3111   0.0000   0.0000   0.0000   0.3295
   8.000   1.4915   0.01141   0.00642  -0.1364  0.3452  1.0000  -2.3432   0.0000   0.0000   0.0000   0.3285
   8.100   1.4983   0.01160   0.00658  -0.1358  0.3390  1.0000  -2.3753   0.0000   0.0000   0.0000   0.3275
   8.300   1.5114   0.01200   0.00694  -0.1344  0.3263  1.0000  -2.4419   0.0000   0.0000   0.0000   0.3255
   8.400   1.5175   0.01223   0.00713  -0.1337  0.3200  1.0000  -2.4746   0.0000   0.0000   0.0000   0.3245
   8.500   1.5235   0.01246   0.00734  -0.1329  0.3134  1.0000  -2.5072   0.0000   0.0000   0.0000   0.3235
   8.600   1.5297   0.01269   0.00754  -0.1322  0.3070  1.0000  -2.5404   0.0000   0.0000   0.0000   0.3225
   8.700   1.5353   0.01294   0.00777  -0.1314  0.3008  1.0000  -2.5814   0.0000   0.0000   0.0000   0.3215
   8.800   1.5411   0.01319   0.00800  -0.1307  0.2943  1.0000  -2.6238   0.0000   0.0000   0.0000   0.3205
   8.900   1.5469   0.01345   0.00823  -0.1300  0.2882  1.0000  -2.6661   0.0000   0.0000   0.0000   0.3196
   9.000   1.5519   0.01375   0.00850  -0.1292  0.2819  1.0000  -2.7068   0.0000   0.0000   0.0000   0.3186
   9.100   1.5577   0.01402   0.00875  -0.1285  0.2755  1.0000  -2.7497   0.0000   0.0000   0.0000   0.3177
   9.200   1.5629   0.01432   0.00902  -0.1277  0.2694  1.0000  -2.7913   0.0000   0.0000   0.0000   0.3168
   9.400   1.5731   0.01495   0.00960  -0.1262  0.2567  1.0000  -2.8744   0.0000   0.0000   0.0000   0.3149
   9.500   1.5779   0.01529   0.00992  -0.1254  0.2507  1.0000  -2.9156   0.0000   0.0000   0.0000   0.3140
   9.600   1.5824   0.01566   0.01025  -0.1246  0.2444  1.0000  -2.9561   0.0000   0.0000   0.0000   0.3131
   9.700   1.5875   0.01599   0.01057  -0.1239  0.2383  1.0000  -2.9983   0.0000   0.0000   0.0000   0.3122
   9.800   1.5920   0.01637   0.01092  -0.1232  0.2323  1.0000  -3.0390   0.0000   0.0000   0.0000   0.3114
   9.900   1.5960   0.01678   0.01130  -0.1224  0.2259  1.0000  -3.0787   0.0000   0.0000   0.0000   0.3105
  10.000   1.6004   0.01717   0.01167  -0.1216  0.2192  1.0000  -3.1197   0.0000   0.0000   0.0000   0.3096
  10.100   1.6044   0.01760   0.01207  -0.1208  0.2125  1.0000  -3.1598   0.0000   0.0000   0.0000   0.3088
  10.200   1.6078   0.01807   0.01249  -0.1200  0.2059  1.0000  -3.2006   0.0000   0.0000   0.0000   0.3079
  10.400   1.6147   0.01901   0.01337  -0.1184  0.1922  1.0000  -3.2827   0.0000   0.0000   0.0000   0.3062
  10.500   1.6181   0.01949   0.01383  -0.1176  0.1858  1.0000  -3.3241   0.0000   0.0000   0.0000   0.3054
  10.600   1.6213   0.01999   0.01430  -0.1168  0.1798  1.0000  -3.3647   0.0000   0.0000   0.0000   0.3045
  10.700   1.6245   0.02050   0.01478  -0.1160  0.1740  1.0000  -3.4056   0.0000   0.0000   0.0000   0.3037
  10.800   1.6284   0.02097   0.01522  -0.1153  0.1687  1.0000  -3.4488   0.0000   0.0000   0.0000   0.3029
  10.900   1.6318   0.02147   0.01570  -0.1145  0.1637  1.0000  -3.4905   0.0000   0.0000   0.0000   0.3021
  11.000   1.6351   0.02198   0.01619  -0.1138  0.1586  1.0000  -3.5322   0.0000   0.0000   0.0000   0.3014
  11.100   1.6387   0.02248   0.01667  -0.1131  0.1538  1.0000  -3.5749   0.0000   0.0000   0.0000   0.3006
  11.200   1.6416   0.02302   0.01719  -0.1123  0.1491  1.0000  -3.6157   0.0000   0.0000   0.0000   0.2998
  11.300   1.6451   0.02353   0.01769  -0.1116  0.1444  1.0000  -3.6584   0.0000   0.0000   0.0000   0.2990
  11.400   1.6483   0.02407   0.01821  -0.1109  0.1400  1.0000  -3.7004   0.0000   0.0000   0.0000   0.2983
  11.500   1.6512   0.02463   0.01875  -0.1102  0.1357  1.0000  -3.7414   0.0000   0.0000   0.0000   0.2975
  11.600   1.6547   0.02515   0.01926  -0.1095  0.1316  1.0000  -3.7845   0.0000   0.0000   0.0000   0.2968
  11.700   1.6571   0.02574   0.01984  -0.1087  0.1277  1.0000  -3.8246   0.0000   0.0000   0.0000   0.2960
  11.800   1.6608   0.02626   0.02035  -0.1081  0.1238  1.0000  -3.8685   0.0000   0.0000   0.0000   0.2953
  11.900   1.6633   0.02686   0.02093  -0.1074  0.1202  1.0000  -3.9090   0.0000   0.0000   0.0000   0.2946
  12.000   1.6665   0.02741   0.02148  -0.1067  0.1164  1.0000  -3.9532   0.0000   0.0000   0.0000   0.2938
  12.100   1.6691   0.02801   0.02207  -0.1060  0.1130  1.0000  -3.9965   0.0000   0.0000   0.0000   0.2931
  12.200   1.6720   0.02859   0.02264  -0.1053  0.1094  1.0000  -4.0412   0.0000   0.0000   0.0000   0.2924
  12.300   1.6744   0.02921   0.02325  -0.1046  0.1062  1.0000  -4.0844   0.0000   0.0000   0.0000   0.2917
  12.400   1.6770   0.02982   0.02385  -0.1040  0.1028  1.0000  -4.1284   0.0000   0.0000   0.0000   0.2910
  12.500   1.6793   0.03045   0.02448  -0.1033  0.0997  1.0000  -4.1716   0.0000   0.0000   0.0000   0.2903
  12.600   1.6817   0.03109   0.02511  -0.1026  0.0965  1.0000  -4.2153   0.0000   0.0000   0.0000   0.2896
  12.700   1.6840   0.03174   0.02575  -0.1020  0.0936  1.0000  -4.2612   0.0000   0.0000   0.0000   0.2889
  12.800   1.6863   0.03239   0.02640  -0.1013  0.0905  1.0000  -4.3075   0.0000   0.0000   0.0000   0.2883
  12.900   1.6884   0.03307   0.02707  -0.1007  0.0877  1.0000  -4.3529   0.0000   0.0000   0.0000   0.2876
  13.000   1.6908   0.03373   0.02773  -0.1000  0.0849  1.0000  -4.3996   0.0000   0.0000   0.0000   0.2869
  13.100   1.6926   0.03444   0.02844  -0.0994  0.0823  1.0000  -4.4442   0.0000   0.0000   0.0000   0.2863
  13.200   1.6952   0.03510   0.02910  -0.0988  0.0797  1.0000  -4.4929   0.0000   0.0000   0.0000   0.2856
  13.300   1.6966   0.03586   0.02985  -0.0982  0.0773  1.0000  -4.5391   0.0000   0.0000   0.0000   0.2850
  13.400   1.6994   0.03651   0.03051  -0.0976  0.0749  1.0000  -4.5932   0.0000   0.0000   0.0000   0.2844
  13.500   1.7012   0.03726   0.03125  -0.0970  0.0727  1.0000  -4.6440   0.0000   0.0000   0.0000   0.2837
  13.600   1.7035   0.03797   0.03197  -0.0965  0.0706  1.0000  -4.6969   0.0000   0.0000   0.0000   0.2831
  13.700   1.7057   0.03869   0.03269  -0.0960  0.0685  1.0000  -4.7500   0.0000   0.0000   0.0000   0.2825
  13.800   1.7070   0.03950   0.03350  -0.0954  0.0666  1.0000  -4.7991   0.0000   0.0000   0.0000   0.2819
  13.900   1.7096   0.04019   0.03420  -0.0949  0.0647  1.0000  -4.8542   0.0000   0.0000   0.0000   0.2813
  14.000   1.7114   0.04096   0.03497  -0.0943  0.0629  1.0000  -4.9060   0.0000   0.0000   0.0000   0.2807
  14.100   1.7128   0.04178   0.03580  -0.0938  0.0612  1.0000  -4.9562   0.0000   0.0000   0.0000   0.2802
  14.200   1.7153   0.04251   0.03654  -0.0933  0.0596  1.0000  -5.0111   0.0000   0.0000   0.0000   0.2796
  14.300   1.7168   0.04333   0.03736  -0.0928  0.0579  1.0000  -5.0623   0.0000   0.0000   0.0000   0.2790
  14.400   1.7180   0.04418   0.03822  -0.0923  0.0565  1.0000  -5.1122   0.0000   0.0000   0.0000   0.2785
  14.500   1.7205   0.04493   0.03898  -0.0919  0.0550  1.0000  -5.1676   0.0000   0.0000   0.0000   0.2779
  14.600   1.7220   0.04578   0.03983  -0.0914  0.0535  1.0000  -5.2191   0.0000   0.0000   0.0000   0.2774
  14.800   1.7250   0.04746   0.04154  -0.0905  0.0509  1.0000  -5.3228   0.0000   0.0000   0.0000   0.2763
  14.900   1.7266   0.04831   0.04240  -0.0901  0.0496  1.0000  -5.3751   0.0000   0.0000   0.0000   0.2758
  15.000   1.7276   0.04922   0.04332  -0.0896  0.0484  1.0000  -5.4249   0.0000   0.0000   0.0000   0.2753
  15.100   1.7286   0.05014   0.04425  -0.0892  0.0473  1.0000  -5.4748   0.0000   0.0000   0.0000   0.2747
  15.200   1.7307   0.05096   0.04509  -0.0888  0.0462  1.0000  -5.5296   0.0000   0.0000   0.0000   0.2742
  15.300   1.7322   0.05184   0.04599  -0.0884  0.0451  1.0000  -5.5822   0.0000   0.0000   0.0000   0.2737
  15.400   1.7328   0.05282   0.04697  -0.0880  0.0440  1.0000  -5.6310   0.0000   0.0000   0.0000   0.2733
  15.500   1.7335   0.05380   0.04796  -0.0876  0.0431  1.0000  -5.6799   0.0000   0.0000   0.0000   0.2728
  15.600   1.7355   0.05464   0.04883  -0.0873  0.0421  1.0000  -5.7353   0.0000   0.0000   0.0000   0.2723
  15.700   1.7367   0.05559   0.04979  -0.0870  0.0411  1.0000  -5.7868   0.0000   0.0000   0.0000   0.2718
  15.800   1.7372   0.05659   0.05081  -0.0866  0.0401  1.0000  -5.8355   0.0000   0.0000   0.0000   0.2714
  16.000   1.7387   0.05858   0.05283  -0.0859  0.0384  1.0000  -5.9349   0.0000   0.0000   0.0000   0.2705
  16.100   1.7399   0.05953   0.05380  -0.0856  0.0375  1.0000  -5.9871   0.0000   0.0000   0.0000   0.2700
  16.200   1.7404   0.06056   0.05485  -0.0853  0.0367  1.0000  -6.0358   0.0000   0.0000   0.0000   0.2696
  16.300   1.7402   0.06169   0.05599  -0.0850  0.0359  1.0000  -6.0815   0.0000   0.0000   0.0000   0.2692
  16.400   1.7403   0.06278   0.05710  -0.0847  0.0351  1.0000  -6.1282   0.0000   0.0000   0.0000   0.2688
  16.500   1.7415   0.06376   0.05811  -0.0845  0.0344  1.0000  -6.1808   0.0000   0.0000   0.0000   0.2683
  16.600   1.7421   0.06481   0.05918  -0.0842  0.0336  1.0000  -6.2306   0.0000   0.0000   0.0000   0.2679
  16.700   1.7422   0.06593   0.06031  -0.0839  0.0328  1.0000  -6.2778   0.0000   0.0000   0.0000   0.2675
  16.800   1.7415   0.06714   0.06154  -0.0837  0.0321  1.0000  -6.3211   0.0000   0.0000   0.0000   0.2672
  16.900   1.7410   0.06834   0.06276  -0.0835  0.0315  1.0000  -6.3649   0.0000   0.0000   0.0000   0.2668
  17.000   1.7419   0.06938   0.06382  -0.0833  0.0308  1.0000  -6.4162   0.0000   0.0000   0.0000   0.2664
  17.100   1.7421   0.07049   0.06496  -0.0831  0.0302  1.0000  -6.4643   0.0000   0.0000   0.0000   0.2661
  17.200   1.7419   0.07166   0.06615  -0.0829  0.0295  1.0000  -6.5102   0.0000   0.0000   0.0000   0.2657
  17.300   1.7409   0.07294   0.06744  -0.0827  0.0289  1.0000  -6.5520   0.0000   0.0000   0.0000   0.2654
  17.400   1.7395   0.07426   0.06878  -0.0825  0.0283  1.0000  -6.5918   0.0000   0.0000   0.0000   0.2650
  17.500   1.7390   0.07549   0.07004  -0.0823  0.0278  1.0000  -6.6360   0.0000   0.0000   0.0000   0.2647
  17.600   1.7393   0.07664   0.07122  -0.0822  0.0273  1.0000  -6.6845   0.0000   0.0000   0.0000   0.2644
  17.700   1.7391   0.07785   0.07245  -0.0821  0.0267  1.0000  -6.7302   0.0000   0.0000   0.0000   0.2641
  17.800   1.7382   0.07915   0.07378  -0.0820  0.0262  1.0000  -6.7724   0.0000   0.0000   0.0000   0.2638
  17.900   1.7370   0.08048   0.07513  -0.0819  0.0257  1.0000  -6.8134   0.0000   0.0000   0.0000   0.2635
  18.000   1.7351   0.08194   0.07661  -0.0818  0.0252  1.0000  -6.8497   0.0000   0.0000   0.0000   0.2633
  18.100   1.7329   0.08342   0.07811  -0.0817  0.0247  1.0000  -6.8846   0.0000   0.0000   0.0000   0.2630
  18.200   1.7330   0.08462   0.07935  -0.0817  0.0243  1.0000  -6.9317   0.0000   0.0000   0.0000   0.2627
  18.300   1.7323   0.08590   0.08066  -0.0816  0.0239  1.0000  -6.9753   0.0000   0.0000   0.0000   0.2625
  18.400   1.7314   0.08722   0.08201  -0.0816  0.0235  1.0000  -7.0173   0.0000   0.0000   0.0000   0.2622
  18.500   1.7299   0.08864   0.08345  -0.0816  0.0231  1.0000  -7.0558   0.0000   0.0000   0.0000   0.2620
  18.600   1.7283   0.09007   0.08491  -0.0816  0.0227  1.0000  -7.0936   0.0000   0.0000   0.0000   0.2618
  18.700   1.7260   0.09160   0.08646  -0.0817  0.0223  1.0000  -7.1278   0.0000   0.0000   0.0000   0.2616
  18.800   1.7234   0.09319   0.08807  -0.0817  0.0220  1.0000  -7.1594   0.0000   0.0000   0.0000   0.2615
  18.900   1.7201   0.09488   0.08979  -0.0818  0.0217  1.0000  -7.1866   0.0000   0.0000   0.0000   0.2613
  19.000   1.7196   0.09620   0.09115  -0.0819  0.0214  1.0000  -7.2303   0.0000   0.0000   0.0000   0.2611
  19.100   1.7187   0.09757   0.09255  -0.0820  0.0211  1.0000  -7.2718   0.0000   0.0000   0.0000   0.2609
  19.200   1.7172   0.09903   0.09405  -0.0821  0.0208  1.0000  -7.3094   0.0000   0.0000   0.0000   0.2608
  19.300   1.7157   0.10049   0.09554  -0.0822  0.0205  1.0000  -7.3471   0.0000   0.0000   0.0000   0.2606
  19.400   1.7136   0.10205   0.09713  -0.0824  0.0202  1.0000  -7.3812   0.0000   0.0000   0.0000   0.2605
  19.500   1.7116   0.10359   0.09870  -0.0826  0.0200  1.0000  -7.4153   0.0000   0.0000   0.0000   0.2604
  19.600   1.7090   0.10521   0.10035  -0.0828  0.0197  1.0000  -7.4459   0.0000   0.0000   0.0000   0.2603
  19.700   1.7062   0.10686   0.10203  -0.0830  0.0195  1.0000  -7.4756   0.0000   0.0000   0.0000   0.2603
  19.800   1.7030   0.10860   0.10379  -0.0833  0.0192  1.0000  -7.5016   0.0000   0.0000   0.0000   0.2603
  19.900   1.6993   0.11040   0.10562  -0.0836  0.0190  1.0000  -7.5246   0.0000   0.0000   0.0000   0.2603


